xflr5 v6.61

Plane name :        AeroSail 30m 5deg flap UPDATED
Polar name :        T1-10.0 m/s-LLT
Freestream speed :  10.000 m/s


   alpha      Beta       CL          CDi        CDv        CD         CY         Cl         Cm         Cn        Cni       QInf        XCP
  -10.000     0.000  -0.584035   0.009113   0.007086   0.016198   0.000000   0.000000   0.090884   0.000000  -0.000000   10.0000     0.6262
   -9.900     0.000  -0.574766   0.008826   0.007052   0.015878   0.000000   0.000000   0.088638   0.000000   0.000000   10.0000     0.6198
   -9.800     0.000  -0.565497   0.008543   0.007019   0.015562   0.000000   0.000000   0.086392   0.000000   0.000000   10.0000     0.6133
   -9.700     0.000  -0.556217   0.008266   0.006986   0.015252   0.000000   0.000000   0.084142   0.000000  -0.000000   10.0000     0.6066
   -9.600     0.000  -0.546925   0.007992   0.006954   0.014945   0.000000   0.000000   0.081887   0.000000   0.000000   10.0000     0.5996
   -9.500     0.000  -0.537610   0.007722   0.006921   0.014643   0.000000   0.000000   0.079623   0.000000   0.000000   10.0000     0.5923
   -9.400     0.000  -0.528251   0.007457   0.006887   0.014344   0.000000   0.000000   0.077340   0.000000  -0.000000   10.0000     0.5844
   -9.300     0.000  -0.518876   0.007195   0.006854   0.014050   0.000000   0.000000   0.075051   0.000000   0.000000   10.0000     0.5762
   -9.200     0.000  -0.509501   0.006939   0.006822   0.013760   0.000000   0.000000   0.072761   0.000000  -0.000000   10.0000     0.5680
   -9.100     0.000  -0.500119   0.006686   0.006790   0.013477   0.000000   0.000000   0.070470   0.000000  -0.000000   10.0000     0.5595
   -9.000     0.000  -0.490724   0.006438   0.006761   0.013199   0.000000   0.000000   0.068173   0.000000   0.000000   10.0000     0.5505
   -8.900     0.000  -0.481302   0.006195   0.006735   0.012929   0.000000   0.000000   0.065867   0.000000  -0.000000   10.0000     0.5408
   -8.800     0.000  -0.471861   0.005955   0.006711   0.012666   0.000000   0.000000   0.063554   0.000000   0.000000   10.0000     0.5307
   -8.700     0.000  -0.462431   0.005721   0.006688   0.012409   0.000000   0.000000   0.061246   0.000000   0.000000   10.0000     0.5204
   -8.600     0.000  -0.453020   0.005492   0.006666   0.012158   0.000000   0.000000   0.058949   0.000000   0.000000   10.0000     0.5100
   -8.500     0.000  -0.443619   0.005268   0.006645   0.011913   0.000000   0.000000   0.056658   0.000000  -0.000000   10.0000     0.4993
   -8.400     0.000  -0.434226   0.005049   0.006623   0.011672   0.000000   0.000000   0.054370   0.000000   0.000000   10.0000     0.4878
   -8.300     0.000  -0.424875   0.004835   0.006603   0.011438   0.000000   0.000000   0.052103   0.000000  -0.000000   10.0000     0.4753
   -8.200     0.000  -0.415526   0.004626   0.006583   0.011209   0.000000   0.000000   0.049838   0.000000   0.000000   10.0000     0.4627
   -8.100     0.000  -0.406159   0.004421   0.006563   0.010985   0.000000   0.000000   0.047564   0.000000  -0.000000   10.0000     0.4496
   -8.000     0.000  -0.396784   0.004221   0.006543   0.010764   0.000000   0.000000   0.045287   0.000000   0.000000   10.0000     0.4363
   -7.900     0.000  -0.387385   0.004025   0.006523   0.010548   0.000000   0.000000   0.042999   0.000000  -0.000000   10.0000     0.4224
   -7.800     0.000  -0.377929   0.003833   0.006504   0.010336   0.000000   0.000000   0.040686  -0.000000  -0.000000   10.0000     0.4061
   -7.700     0.000  -0.368441   0.003644   0.006485   0.010129   0.000000   0.000000   0.038360   0.000000   0.000000   10.0000     0.3884
   -7.600     0.000  -0.359018   0.003461   0.006468   0.009929   0.000000   0.000000   0.036057   0.000000   0.000000   10.0000     0.3706
   -7.500     0.000  -0.349593   0.003283   0.006453   0.009737   0.000000   0.000000   0.033760   0.000000   0.000000   10.0000     0.3522
   -7.400     0.000  -0.340171   0.003111   0.006440   0.009551   0.000000   0.000000   0.031467   0.000000   0.000000   10.0000     0.3333
   -7.300     0.000  -0.330774   0.002944   0.006430   0.009374   0.000000   0.000000   0.029187   0.000000   0.000000   10.0000     0.3134
   -7.200     0.000  -0.321418   0.002784   0.006427   0.009211   0.000000   0.000000   0.026935   0.000000  -0.000000   10.0000     0.2910
   -7.100     0.000  -0.312129   0.002628   0.006428   0.009056   0.000000   0.000000   0.024710   0.000000   0.000000   10.0000     0.2685
   -7.000     0.000  -0.302853   0.002477   0.006428   0.008905   0.000000   0.000000   0.022490   0.000000   0.000000   10.0000     0.2459
   -6.900     0.000  -0.293645   0.002331   0.006433   0.008764   0.000000   0.000000   0.020301   0.000000   0.000000   10.0000     0.2217
   -6.800     0.000  -0.284548   0.002191   0.006444   0.008635   0.000000   0.000000   0.018162   0.000000   0.000000   10.0000     0.1969
   -6.700     0.000  -0.275777   0.002058   0.006472   0.008530   0.000000   0.000000   0.016170   0.000000   0.000000   10.0000     0.1710
   -6.600     0.000  -0.267134   0.001931   0.006506   0.008437   0.000000   0.000000   0.014236   0.000000   0.000000   10.0000     0.1441
   -6.500     0.000  -0.258469   0.001808   0.006540   0.008348   0.000000   0.000000   0.012294   0.000000  -0.000000   10.0000     0.1154
   -6.400     0.000  -0.249795   0.001689   0.006575   0.008264   0.000000   0.000000   0.010347   0.000000   0.000000   10.0000     0.0858
   -6.300     0.000  -0.241092   0.001573   0.006610   0.008183   0.000000   0.000000   0.008386   0.000000   0.000000   10.0000     0.0530
   -6.200     0.000  -0.232317   0.001461   0.006645   0.008107   0.000000   0.000000   0.006392   0.000000  -0.000000   10.0000     0.0109
   -6.100     0.000  -0.223434   0.001353   0.006682   0.008035   0.000000   0.000000   0.004349   0.000000   0.000000   10.0000    -0.0429
   -6.000     0.000  -0.214548   0.001248   0.006718   0.007966   0.000000  -0.000000   0.002303   0.000000  -0.000000   10.0000    -0.0987
   -5.900     0.000  -0.205662   0.001147   0.006753   0.007901   0.000000   0.000000   0.000257   0.000000   0.000000   10.0000    -0.1547
   -5.800     0.000  -0.196775   0.001051   0.006789   0.007840   0.000000  -0.000000  -0.001790   0.000000   0.000000   10.0000    -0.2108
   -5.700     0.000  -0.187887   0.000959   0.006825   0.007784   0.000000   0.000000  -0.003837   0.000000   0.000000   10.0000    -0.2673
   -5.600     0.000  -0.178993   0.000871   0.006861   0.007731   0.000000   0.000000  -0.005887   0.000000   0.000000   10.0000    -0.3251
   -5.500     0.000  -0.170084   0.000787   0.006895   0.007682   0.000000   0.000000  -0.007943   0.000000   0.000000   10.0000    -0.3872
   -5.400     0.000  -0.161175   0.000707   0.006929   0.007636   0.000000   0.000000  -0.010001   0.000000  -0.000000   10.0000    -0.4499
   -5.300     0.000  -0.152249   0.000631   0.006962   0.007593   0.000000   0.000000  -0.012065   0.000000   0.000000   10.0000    -0.5177
   -5.200     0.000  -0.143298   0.000560   0.006991   0.007551   0.000000  -0.000000  -0.014142   0.000000  -0.000000   10.0000    -0.5939
   -5.100     0.000  -0.134229   0.000492   0.007009   0.007501   0.000000   0.000000  -0.016270   0.000000   0.000000   10.0000    -0.7172
   -5.000     0.000  -0.125051   0.000428   0.007017   0.007444   0.000000   0.000000  -0.018446   0.000000   0.000000   10.0000    -0.8782
   -4.900     0.000  -0.115875   0.000368   0.007024   0.007392   0.000000  -0.000000  -0.020622   0.000000  -0.000000   10.0000    -1.0391
   -4.800     0.000  -0.106697   0.000313   0.007032   0.007344   0.000000   0.000000  -0.022799   0.000000   0.000000   10.0000    -1.2153
   -4.700     0.000  -0.097516   0.000262   0.007039   0.007301   0.000000   0.000000  -0.024977   0.000000   0.000000   10.0000    -1.4012
   -4.600     0.000  -0.088320   0.000216   0.007048   0.007263   0.000000   0.000000  -0.027162   0.000000   0.000000   10.0000    -1.6484
   -4.500     0.000  -0.079064   0.000174   0.007058   0.007232   0.000000   0.000000  -0.029370   0.000000   0.000000   10.0000    -2.1795
   -4.400     0.000  -0.069804   0.000136   0.007069   0.007205   0.000000   0.000000  -0.031581   0.000000   0.000000   10.0000    -2.7404
   -4.300     0.000  -0.060544   0.000103   0.007080   0.007183   0.000000   0.000000  -0.033792   0.000000  -0.000000   10.0000    -3.3012
   -4.200     0.000  -0.051283   0.000075   0.007090   0.007165   0.000000   0.000000  -0.036003   0.000000   0.000000   10.0000    -3.7835
   -4.100     0.000  -0.042020   0.000051   0.007101   0.007152   0.000000  -0.000000  -0.038215   0.000000  -0.000000   10.0000    -4.1332
   -4.000     0.000  -0.032729   0.000032   0.007112   0.007144   0.000000   0.000000  -0.040438   0.000000   0.000000   10.0000    -2.4979
   -3.900     0.000  -0.023413   0.000017   0.007124   0.007140   0.000000   0.000000  -0.042671   0.000000   0.000000   10.0000     0.9592
   -3.800     0.000  -0.014098   0.000007   0.007135   0.007142   0.000000  -0.000000  -0.044903   0.000000   0.000000   10.0000     4.4159
   -3.700     0.000  -0.004784   0.000001   0.007146   0.007147   0.000000   0.000000  -0.047136   0.000000   0.000000   10.0000     7.8719
   -3.600     0.000   0.004531   0.000000   0.007158   0.007158   0.000000  -0.000000  -0.049369   0.000000  -0.000000   10.0000    11.3306
   -3.500     0.000   0.013846   0.000004   0.007169   0.007173   0.000000  -0.000000  -0.051601   0.000000   0.000000   10.0000    14.7866
   -3.400     0.000   0.023155   0.000012   0.007172   0.007184   0.000000  -0.000000  -0.053831   0.000000   0.000000   10.0000    13.8001
   -3.300     0.000   0.032463   0.000025   0.007173   0.007198   0.000000  -0.000000  -0.056060   0.000000  -0.000000   10.0000    11.9097
   -3.200     0.000   0.041770   0.000042   0.007174   0.007216   0.000000  -0.000000  -0.058289   0.000000  -0.000000   10.0000    10.0090
   -3.100     0.000   0.051078   0.000064   0.007174   0.007239   0.000000  -0.000000  -0.060519   0.000000  -0.000000   10.0000     8.0905
   -3.000     0.000   0.060386   0.000091   0.007175   0.007266   0.000000  -0.000000  -0.062748   0.000000  -0.000000   10.0000     6.1719
   -2.900     0.000   0.069692   0.000122   0.007177   0.007300   0.000000  -0.000000  -0.064975   0.000000   0.000000   10.0000     4.7036
   -2.800     0.000   0.078993   0.000158   0.007184   0.007342   0.000000  -0.000000  -0.067199   0.000000  -0.000000   10.0000     4.2323
   -2.700     0.000   0.088293   0.000199   0.007191   0.007390   0.000000  -0.000000  -0.069423   0.000000  -0.000000   10.0000     3.8962
   -2.600     0.000   0.097593   0.000244   0.007199   0.007442   0.000000  -0.000000  -0.071646   0.000000  -0.000000   10.0000     3.6150
   -2.500     0.000   0.106893   0.000293   0.007206   0.007499   0.000000  -0.000000  -0.073870   0.000000   0.000000   10.0000     3.3339
   -2.400     0.000   0.116193   0.000348   0.007214   0.007561   0.000000  -0.000000  -0.076093   0.000000  -0.000000   10.0000     3.0848
   -2.300     0.000   0.125529   0.000407   0.007223   0.007629   0.000000  -0.000000  -0.078330   0.000000  -0.000000   10.0000     2.9275
   -2.200     0.000   0.134878   0.000470   0.007232   0.007702   0.000000  -0.000000  -0.080573   0.000000   0.000000   10.0000     2.8045
   -2.100     0.000   0.144232   0.000539   0.007242   0.007780   0.000000  -0.000000  -0.082819   0.000000   0.000000   10.0000     2.6936
   -2.000     0.000   0.153586   0.000612   0.007252   0.007863   0.000000  -0.000000  -0.085064   0.000000   0.000000   10.0000     2.5840
   -1.900     0.000   0.162943   0.000689   0.007261   0.007951   0.000000  -0.000000  -0.087310   0.000000  -0.000000   10.0000     2.4802
   -1.800     0.000   0.172280   0.000772   0.007270   0.008041   0.000000  -0.000000  -0.089548   0.000000   0.000000   10.0000     2.3875
   -1.700     0.000   0.181585   0.000858   0.007275   0.008133   0.000000  -0.000000  -0.091771   0.000000  -0.000000   10.0000     2.3149
   -1.600     0.000   0.190880   0.000949   0.007279   0.008228   0.000000  -0.000000  -0.093990   0.000000  -0.000000   10.0000     2.2524
   -1.500     0.000   0.200172   0.001045   0.007283   0.008328   0.000000  -0.000000  -0.096208   0.000000   0.000000   10.0000     2.1972
   -1.400     0.000   0.209463   0.001145   0.007286   0.008432   0.000000  -0.000000  -0.098424   0.000000   0.000000   10.0000     2.1434
   -1.300     0.000   0.218755   0.001250   0.007290   0.008540   0.000000  -0.000000  -0.100642   0.000000   0.000000   10.0000     2.0902
   -1.200     0.000   0.228061   0.001360   0.007295   0.008655   0.000000  -0.000000  -0.102864   0.000000   0.000000   10.0000     2.0486
   -1.100     0.000   0.237376   0.001474   0.007302   0.008776   0.000000  -0.000000  -0.105090   0.000000   0.000000   10.0000     2.0110
   -1.000     0.000   0.246694   0.001593   0.007308   0.008901   0.000000  -0.000000  -0.107317   0.000000   0.000000   10.0000     1.9753
   -0.900     0.000   0.256012   0.001716   0.007315   0.009031   0.000000  -0.000000  -0.109545   0.000000   0.000000   10.0000     1.9401
   -0.800     0.000   0.265333   0.001844   0.007322   0.009167   0.000000  -0.000000  -0.111773   0.000000   0.000000   10.0000     1.9059
   -0.700     0.000   0.274625   0.001977   0.007331   0.009308   0.000000  -0.000000  -0.113988   0.000000  -0.000000   10.0000     1.8742
   -0.600     0.000   0.283872   0.002114   0.007341   0.009455   0.000000  -0.000000  -0.116183   0.000000   0.000000   10.0000     1.8472
   -0.500     0.000   0.293110   0.002255   0.007352   0.009607   0.000000  -0.000000  -0.118374   0.000000   0.000000   10.0000     1.8222
   -0.400     0.000   0.302339   0.002400   0.007364   0.009764   0.000000  -0.000000  -0.120559   0.000000  -0.000000   10.0000     1.7981
   -0.300     0.000   0.311568   0.002550   0.007376   0.009926   0.000000  -0.000000  -0.122745   0.000000   0.000000   10.0000     1.7740
   -0.200     0.000   0.320796   0.002704   0.007388   0.010092   0.000000  -0.000000  -0.124929   0.000000   0.000000   10.0000     1.7511
   -0.100     0.000   0.330079   0.002864   0.007395   0.010259   0.000000  -0.000000  -0.127139   0.000000   0.000000   10.0000     1.7309
    0.000     0.000   0.339384   0.003028   0.007400   0.010428   0.000000  -0.000000  -0.129358  -0.000000  -0.000000   10.0000     1.7123
    0.100     0.000   0.348698   0.003197   0.007405   0.010602   0.000000  -0.000000  -0.131581   0.000000   0.000000   10.0000     1.6940
    0.200     0.000   0.358017   0.003371   0.007409   0.010780   0.000000  -0.000000  -0.133807   0.000000  -0.000000   10.0000     1.6766
    0.300     0.000   0.367335   0.003549   0.007413   0.010963   0.000000  -0.000000  -0.136032   0.000000  -0.000000   10.0000     1.6597
    0.400     0.000   0.376627   0.003732   0.007419   0.011151   0.000000  -0.000000  -0.138245   0.000000   0.000000   10.0000     1.6441
    0.500     0.000   0.385886   0.003919   0.007426   0.011346   0.000000  -0.000000  -0.140444   0.000000   0.000000   10.0000     1.6298
    0.600     0.000   0.395129   0.004110   0.007435   0.011545   0.000000  -0.000000  -0.142635   0.000000   0.000000   10.0000     1.6161
    0.700     0.000   0.404367   0.004306   0.007444   0.011750   0.000000  -0.000000  -0.144824   0.000000   0.000000   10.0000     1.6024
    0.800     0.000   0.413597   0.004506   0.007453   0.011959   0.000000  -0.000000  -0.147009   0.000000   0.000000   10.0000     1.5891
    0.900     0.000   0.422828   0.004711   0.007462   0.012173   0.000000  -0.000000  -0.149194   0.000000   0.000000   10.0000     1.5762
    1.000     0.000   0.432040   0.004920   0.007471   0.012391   0.000000  -0.000000  -0.151371   0.000000   0.000000   10.0000     1.5648
    1.100     0.000   0.441240   0.005133   0.007480   0.012613   0.000000  -0.000000  -0.153542   0.000000  -0.000000   10.0000     1.5541
    1.200     0.000   0.450434   0.005350   0.007490   0.012840   0.000000  -0.000000  -0.155710   0.000000   0.000000   10.0000     1.5439
    1.300     0.000   0.459627   0.005572   0.007500   0.013072   0.000000  -0.000000  -0.157876   0.000000   0.000000   10.0000     1.5338
    1.400     0.000   0.468816   0.005798   0.007509   0.013308   0.000000  -0.000000  -0.160042   0.000000  -0.000000   10.0000     1.5240
    1.500     0.000   0.478002   0.006029   0.007519   0.013548   0.000000  -0.000000  -0.162206   0.000000  -0.000000   10.0000     1.5144
    1.600     0.000   0.487181   0.006264   0.007530   0.013794   0.000000  -0.000000  -0.164367   0.000000   0.000000   10.0000     1.5049
    1.700     0.000   0.496353   0.006503   0.007540   0.014043   0.000000  -0.000000  -0.166524   0.000000  -0.000000   10.0000     1.4957
    1.800     0.000   0.505524   0.006747   0.007551   0.014298   0.000000  -0.000000  -0.168680   0.000000   0.000000   10.0000     1.4866
    1.900     0.000   0.514695   0.006995   0.007561   0.014556   0.000000  -0.000000  -0.170837   0.000000   0.000000   10.0000     1.4774
    2.000     0.000   0.523855   0.007248   0.007572   0.014820   0.000000  -0.000000  -0.172989   0.000000  -0.000000   10.0000     1.4686
    2.100     0.000   0.532987   0.007504   0.007583   0.015087   0.000000  -0.000000  -0.175128   0.000000  -0.000000   10.0000     1.4605
    2.200     0.000   0.542110   0.007765   0.007594   0.015359   0.000000  -0.000000  -0.177264   0.000000   0.000000   10.0000     1.4527
    2.300     0.000   0.551222   0.008030   0.007605   0.015635   0.000000  -0.000000  -0.179394   0.000000  -0.000000   10.0000     1.4453
    2.400     0.000   0.560331   0.008299   0.007616   0.015915   0.000000   0.000000  -0.181524   0.000000   0.000000   10.0000     1.4380
    2.500     0.000   0.569433   0.008572   0.007627   0.016200   0.000000  -0.000000  -0.183650   0.000000   0.000000   10.0000     1.4308
    2.600     0.000   0.578478   0.008849   0.007641   0.016491   0.000000  -0.000000  -0.185750   0.000000  -0.000000   10.0000     1.4240
    2.700     0.000   0.587494   0.009130   0.007657   0.016787   0.000000  -0.000000  -0.187837   0.000000   0.000000   10.0000     1.4173
    2.800     0.000   0.596498   0.009414   0.007673   0.017087   0.000000  -0.000000  -0.189919   0.000000   0.000000   10.0000     1.4108
    2.900     0.000   0.605483   0.009702   0.007690   0.017393   0.000000  -0.000000  -0.191992   0.000000   0.000000   10.0000     1.4043
    3.000     0.000   0.614462   0.009995   0.007707   0.017702   0.000000  -0.000000  -0.194062   0.000000   0.000000   10.0000     1.3981
    3.100     0.000   0.623450   0.010291   0.007723   0.018014   0.000000  -0.000000  -0.196135   0.000000  -0.000000   10.0000     1.3921
    3.200     0.000   0.632469   0.010592   0.007735   0.018327   0.000000  -0.000000  -0.198223   0.000000   0.000000   10.0000     1.3864
    3.300     0.000   0.641504   0.010898   0.007745   0.018643   0.000000  -0.000000  -0.200317   0.000000   0.000000   10.0000     1.3809
    3.400     0.000   0.650549   0.011209   0.007754   0.018963   0.000000  -0.000000  -0.202416   0.000000   0.000000   10.0000     1.3754
    3.500     0.000   0.659599   0.011525   0.007761   0.019286   0.000000  -0.000000  -0.204517   0.000000  -0.000000   10.0000     1.3700
    3.600     0.000   0.668629   0.011844   0.007770   0.019614   0.000000  -0.000000  -0.206610   0.000000   0.000000   10.0000     1.3646
    3.700     0.000   0.677607   0.012166   0.007782   0.019948   0.000000  -0.000000  -0.208680   0.000000   0.000000   10.0000     1.3595
    3.800     0.000   0.686553   0.012492   0.007795   0.020287   0.000000  -0.000000  -0.210735   0.000000   0.000000   10.0000     1.3546
    3.900     0.000   0.695486   0.012821   0.007809   0.020630   0.000000  -0.000000  -0.212784   0.000000   0.000000   10.0000     1.3497
    4.000     0.000   0.704396   0.013155   0.007824   0.020978   0.000000  -0.000000  -0.214823   0.000000  -0.000000   10.0000     1.3449
    4.100     0.000   0.713304   0.013492   0.007839   0.021331   0.000000  -0.000000  -0.216860   0.000000   0.000000   10.0000     1.3401
    4.200     0.000   0.722193   0.013833   0.007854   0.021687   0.000000  -0.000000  -0.218890   0.000000   0.000000   10.0000     1.3355
    4.300     0.000   0.731034   0.014177   0.007871   0.022048   0.000000  -0.000000  -0.220898   0.000000  -0.000000   10.0000     1.3310
    4.400     0.000   0.739827   0.014528   0.007888   0.022416   0.000000  -0.000000  -0.222890   0.000000   0.000000   10.0000     1.3266
    4.500     0.000   0.748659   0.014877   0.007907   0.022783   0.000000  -0.000000  -0.224889   0.000000   0.000000   10.0000     1.3222
    4.600     0.000   0.757434   0.015234   0.007925   0.023159   0.000000  -0.000000  -0.226871   0.000000  -0.000000   10.0000     1.3179
    4.700     0.000   0.766261   0.015591   0.007943   0.023534   0.000000  -0.000000  -0.228867   0.000000   0.000000   10.0000     1.3136
    4.800     0.000   0.775087   0.015953   0.007960   0.023914   0.000000  -0.000000  -0.230865   0.000000  -0.000000   10.0000     1.3095
    4.900     0.000   0.783898   0.016320   0.007978   0.024298   0.000000  -0.000000  -0.232857  -0.000000  -0.000000   10.0000     1.3055
    5.000     0.000   0.792714   0.016691   0.007995   0.024686   0.000000  -0.000000  -0.234852   0.000000   0.000000   10.0000     1.3016
    5.100     0.000   0.801536   0.017067   0.008012   0.025078   0.000000  -0.000000  -0.236849   0.000000   0.000000   10.0000     1.2977
    5.200     0.000   0.810368   0.017447   0.008027   0.025474   0.000000  -0.000000  -0.238851   0.000000   0.000000   10.0000     1.2938
    5.300     0.000   0.819118   0.017830   0.008047   0.025877   0.000000  -0.000000  -0.240818   0.000000   0.000000   10.0000     1.2900
    5.400     0.000   0.827819   0.018215   0.008070   0.026285   0.000000  -0.000000  -0.242764   0.000000  -0.000000   10.0000     1.2863
    5.500     0.000   0.836474   0.018603   0.008096   0.026699   0.000000  -0.000000  -0.244688   0.000000   0.000000   10.0000     1.2826
    5.600     0.000   0.845130   0.018994   0.008121   0.027116   0.000000  -0.000000  -0.246613   0.000000  -0.000000   10.0000     1.2789
    5.700     0.000   0.853748   0.019388   0.008149   0.027537   0.000000  -0.000000  -0.248522   0.000000   0.000000   10.0000     1.2752
    5.800     0.000   0.862381   0.019787   0.008176   0.027963   0.000000  -0.000000  -0.250436   0.000000   0.000000   10.0000     1.2717
    5.900     0.000   0.871042   0.020189   0.008202   0.028391   0.000000  -0.000000  -0.252362   0.000000   0.000000   10.0000     1.2682
    6.000     0.000   0.879706   0.020596   0.008228   0.028824   0.000000  -0.000000  -0.254289   0.000000   0.000000   10.0000     1.2648
    6.100     0.000   0.888362   0.021006   0.008254   0.029260   0.000000  -0.000000  -0.256213   0.000000   0.000000   10.0000     1.2615
    6.200     0.000   0.897025   0.021421   0.008280   0.029701   0.000000  -0.000000  -0.258140   0.000000   0.000000   10.0000     1.2582
    6.300     0.000   0.905692   0.021839   0.008306   0.030146   0.000000  -0.000000  -0.260068   0.000000   0.000000   10.0000     1.2549
    6.400     0.000   0.914257   0.022260   0.008339   0.030599   0.000000  -0.000000  -0.261954  -0.000000  -0.000000   10.0000     1.2517
    6.500     0.000   0.922784   0.022683   0.008375   0.031058   0.000000  -0.000000  -0.263824   0.000000   0.000000   10.0000     1.2484
    6.600     0.000   0.931236   0.023111   0.008414   0.031525   0.000000  -0.000000  -0.265666   0.000000   0.000000   10.0000     1.2452
    6.700     0.000   0.939722   0.023536   0.008454   0.031990   0.000000   0.000000  -0.267511  -0.000000  -0.000000   10.0000     1.2421
    6.800     0.000   0.948156   0.023964   0.008497   0.032462   0.000000  -0.000000  -0.269338   0.000000   0.000000   10.0000     1.2389
    6.900     0.000   0.956600   0.024397   0.008540   0.032937   0.000000  -0.000000  -0.271169   0.000000  -0.000000   10.0000     1.2358
    7.000     0.000   0.965076   0.024835   0.008580   0.033416   0.000000  -0.000000  -0.273014   0.000000   0.000000   10.0000     1.2328
    7.100     0.000   0.973565   0.025278   0.008621   0.033898   0.000000  -0.000000  -0.274866   0.000000   0.000000   10.0000     1.2298
    7.200     0.000   0.982042   0.025723   0.008662   0.034385   0.000000  -0.000000  -0.276712   0.000000   0.000000   10.0000     1.2268
    7.300     0.000   0.990514   0.026173   0.008704   0.034876   0.000000  -0.000000  -0.278556   0.000000   0.000000   10.0000     1.2239
    7.400     0.000   0.998983   0.026627   0.008745   0.035372   0.000000  -0.000000  -0.280400   0.000000   0.000000   10.0000     1.2210
    7.500     0.000   1.007369   0.027082   0.008791   0.035873   0.000000  -0.000000  -0.282209   0.000000   0.000000   10.0000     1.2181
    7.600     0.000   1.015728   0.027541   0.008837   0.036378   0.000000  -0.000000  -0.284006   0.000000  -0.000000   10.0000     1.2153
    7.700     0.000   1.024039   0.028001   0.008887   0.036887   0.000000  -0.000000  -0.285783  -0.000000  -0.000000   10.0000     1.2124
    7.800     0.000   1.032364   0.028465   0.008935   0.037400   0.000000  -0.000000  -0.287565  -0.000000  -0.000000   10.0000     1.2096
    7.900     0.000   1.040662   0.028932   0.008985   0.037917   0.000000  -0.000000  -0.289336  -0.000000  -0.000000   10.0000     1.2068
    8.000     0.000   1.048792   0.029400   0.009042   0.038442   0.000000  -0.000000  -0.291040   0.000000   0.000000   10.0000     1.2039
    8.100     0.000   1.056896   0.029862   0.009102   0.038965   0.000000  -0.000000  -0.292723   0.000000   0.000000   10.0000     1.2011
    8.200     0.000   1.064934   0.030332   0.009164   0.039496   0.000000  -0.000000  -0.294385   0.000000   0.000000   10.0000     1.1982
    8.300     0.000   1.072985   0.030799   0.009226   0.040025   0.000000  -0.000000  -0.296045   0.000000   0.000000   10.0000     1.1954
    8.400     0.000   1.080963   0.031272   0.009291   0.040563   0.000000  -0.000000  -0.297681  -0.000000  -0.000000   10.0000     1.1925
    8.500     0.000   1.088891   0.031740   0.009358   0.041098   0.000000  -0.000000  -0.299287   0.000000   0.000000   10.0000     1.1897
    8.600     0.000   1.096727   0.032215   0.009426   0.041640   0.000000  -0.000000  -0.300863   0.000000   0.000000   10.0000     1.1868
    8.700     0.000   1.104587   0.032687   0.009494   0.042181   0.000000  -0.000000  -0.302440   0.000000   0.000000   10.0000     1.1840
    8.800     0.000   1.112374   0.033167   0.009562   0.042729   0.000000  -0.000000  -0.303995  -0.000000  -0.000000   10.0000     1.1812
    8.900     0.000   1.120195   0.033644   0.009630   0.043274   0.000000  -0.000000  -0.305556   0.000000   0.000000   10.0000     1.1784
    9.000     0.000   1.127891   0.034127   0.009699   0.043826   0.000000  -0.000000  -0.307070   0.000000   0.000000   10.0000     1.1755
    9.100     0.000   1.135451   0.034605   0.009766   0.044370   0.000000  -0.000000  -0.308517   0.000000   0.000000   10.0000     1.1726
    9.200     0.000   1.142962   0.035077   0.009832   0.044909   0.000000  -0.000000  -0.309933   0.000000   0.000000   10.0000     1.1697
    9.300     0.000   1.150399   0.035553   0.009896   0.045449   0.000000  -0.000000  -0.311319   0.000000   0.000000   10.0000     1.1667
    9.400     0.000   1.157779   0.036033   0.009961   0.045994   0.000000   0.000000  -0.312683   0.000000   0.000000   10.0000     1.1638
    9.500     0.000   1.165140   0.036512   0.010027   0.046539   0.000000  -0.000000  -0.314035   0.000000   0.000000   10.0000     1.1608
    9.600     0.000   1.172266   0.036983   0.010098   0.047081   0.000000  -0.000000  -0.315285   0.000000   0.000000   10.0000     1.1578
    9.700     0.000   1.179254   0.037452   0.010171   0.047623   0.000000  -0.000000  -0.316475   0.000000   0.000000   10.0000     1.1547
    9.800     0.000   1.186202   0.037919   0.010247   0.048166   0.000000  -0.000000  -0.317648   0.000000   0.000000   10.0000     1.1516
    9.900     0.000   1.193058   0.038385   0.010325   0.048710   0.000000  -0.000000  -0.318781   0.000000   0.000000   10.0000     1.1485
   10.000     0.000   1.199917   0.038853   0.010404   0.049257   0.000000  -0.000000  -0.319914   0.000000   0.000000   10.0000     1.1453
   10.100     0.000   1.206733   0.039317   0.010483   0.049799   0.000000  -0.000000  -0.321023   0.000000   0.000000   10.0000     1.1422
   10.200     0.000   1.213425   0.039784   0.010563   0.050347   0.000000  -0.000000  -0.322087   0.000000   0.000000   10.0000     1.1390
   10.300     0.000   1.220130   0.040253   0.010643   0.050895   0.000000  -0.000000  -0.323153   0.000000   0.000000   10.0000     1.1359
   10.400     0.000   1.226848   0.040719   0.010723   0.051442   0.000000  -0.000000  -0.324219   0.000000   0.000000   10.0000     1.1327
   10.500     0.000   1.233518   0.041192   0.010804   0.051996   0.000000  -0.000000  -0.325273   0.000000   0.000000   10.0000     1.1296
   10.600     0.000   1.240156   0.041660   0.010887   0.052547   0.000000   0.000000  -0.326309   0.000000   0.000000   10.0000     1.1264
   10.700     0.000   1.246602   0.042129   0.010976   0.053105   0.000000  -0.000000  -0.327278   0.000000   0.000000   10.0000     1.1232
   10.800     0.000   1.253017   0.042595   0.011067   0.053662   0.000000  -0.000000  -0.328233   0.000000   0.000000   10.0000     1.1201
   10.900     0.000   1.259377   0.043059   0.011161   0.054220   0.000000  -0.000000  -0.329165   0.000000   0.000000   10.0000     1.1169
   11.000     0.000   1.265717   0.043524   0.011256   0.054780   0.000000  -0.000000  -0.330090   0.000000   0.000000   10.0000     1.1138
   11.100     0.000   1.272473   0.043999   0.011352   0.055351   0.000000  -0.000000  -0.331210   0.000000  -0.000000   10.0000     1.1109
   11.200     0.000   1.280440   0.044523   0.011457   0.055980   0.000000  -0.000000  -0.332926   0.000000  -0.000000   10.0000     1.1090
   11.300     0.000   1.288899   0.045075   0.011567   0.056642   0.000000  -0.000000  -0.334890   0.000000   0.000000   10.0000     1.1076
   11.400     0.000   1.298009   0.045663   0.011679   0.057343   0.000000  -0.000000  -0.337176   0.000000  -0.000000   10.0000     1.1066
   11.500     0.000   1.307325   0.046270   0.011793   0.058063   0.000000  -0.000000  -0.339565   0.000000   0.000000   10.0000     1.1058
   11.600     0.000   1.316607   0.046881   0.011907   0.058788   0.000000  -0.000000  -0.341941   0.000000   0.000000   10.0000     1.1051
   11.700     0.000   1.326541   0.047520   0.012028   0.059549   0.000000  -0.000000  -0.344635  -0.000000  -0.000000   10.0000     1.1048
   11.800     0.000   1.336502   0.048175   0.012151   0.060326   0.000000  -0.000000  -0.347357   0.000000   0.000000   10.0000     1.1046
   11.900     0.000   1.346448   0.048836   0.012274   0.061111   0.000000  -0.000000  -0.350074   0.000000   0.000000   10.0000     1.1045
   12.000     0.000   1.356389   0.049504   0.012397   0.061901   0.000000  -0.000000  -0.352791   0.000000   0.000000   10.0000     1.1044
   12.100     0.000   1.366330   0.050177   0.012520   0.062697   0.000000  -0.000000  -0.355508  -0.000000  -0.000000   10.0000     1.1042
   12.200     0.000   1.376807   0.050890   0.012645   0.063536   0.000000  -0.000000  -0.358489   0.000000   0.000000   10.0000     1.1045
   12.300     0.000   1.385986   0.051567   0.012776   0.064343   0.000000  -0.000000  -0.360881  -0.000000  -0.000000   10.0000     1.1039
   12.400     0.000   1.394198   0.052203   0.012910   0.065113   0.000000  -0.000000  -0.362822   0.000000   0.000000   10.0000     1.1027
   12.500     0.000   1.401782   0.052815   0.013046   0.065862   0.000000  -0.000000  -0.364473   0.000000   0.000000   10.0000     1.1011
   12.600     0.000   1.409189   0.053415   0.013184   0.066599   0.000000  -0.000000  -0.366037   0.000000   0.000000   10.0000     1.0994
   12.700     0.000   1.415873   0.053968   0.013327   0.067295   0.000000  -0.000000  -0.367257   0.000000  -0.000000   10.0000     1.0971
   12.800     0.000   1.422532   0.054519   0.013476   0.067995   0.000000  -0.000000  -0.368479   0.000000   0.000000   10.0000     1.0950
   12.900     0.000   1.429149   0.055074   0.013628   0.068702   0.000000  -0.000000  -0.369695   0.000000   0.000000   10.0000     1.0928
   13.000     0.000   1.435511   0.055608   0.013783   0.069391   0.000000  -0.000000  -0.370789   0.000000   0.000000   10.0000     1.0905
   13.100     0.000   1.441367   0.056111   0.013942   0.070053   0.000000  -0.000000  -0.371649   0.000000   0.000000   10.0000     1.0879
   13.200     0.000   1.447555   0.056664   0.014104   0.070768   0.000000  -0.000000  -0.372699   0.000000   0.000000   10.0000     1.0855
   13.300     0.000   1.453679   0.057211   0.014274   0.071484   0.000000  -0.000000  -0.373732   0.000000  -0.000000   10.0000     1.0832
   13.400     0.000   1.459702   0.057754   0.014448   0.072202   0.000000  -0.000000  -0.374730  -0.000000  -0.000000   10.0000     1.0809
   13.500     0.000   1.465641   0.058298   0.014628   0.072926   0.000000  -0.000000  -0.375704   0.000000   0.000000   10.0000     1.0786
   13.600     0.000   1.471507   0.058834   0.014812   0.073646   0.000000  -0.000000  -0.376650   0.000000  -0.000000   10.0000     1.0763
   13.700     0.000   1.476965   0.059332   0.015002   0.074334   0.000000  -0.000000  -0.377404   0.000000   0.000000   10.0000     1.0737
   13.800     0.000   1.482057   0.059808   0.015204   0.075012   0.000000  -0.000000  -0.378020   0.000000   0.000000   10.0000     1.0709
   13.900     0.000   1.487058   0.060280   0.015416   0.075696   0.000000  -0.000000  -0.378619  -0.000000  -0.000000   10.0000     1.0682
   14.000     0.000   1.491963   0.060749   0.015634   0.076383   0.000000  -0.000000  -0.379194   0.000000   0.000000   10.0000     1.0656
   14.100     0.000   1.496790   0.061214   0.015858   0.077072   0.000000  -0.000000  -0.379746  -0.000000  -0.000000   10.0000     1.0629
   14.200     0.000   1.501534   0.061676   0.016091   0.077766   0.000000  -0.000000  -0.380284   0.000000   0.000000   10.0000     1.0602