xflr5 v6.61

Plane name :        AeroSail 30m 2deg flap UPDATED
Polar name :        T1-10.0 m/s-LLT
Freestream speed :  10.000 m/s


   alpha      Beta       CL          CDi        CDv        CD         CY         Cl         Cm         Cn        Cni       QInf        XCP
  -10.000     0.000  -0.782818   0.016354   0.007202   0.023556   0.000000   0.000000   0.166048   0.000000   0.000000   10.0000     0.8923
   -9.900     0.000  -0.772738   0.015946   0.007159   0.023105   0.000000   0.000000   0.163411   0.000000   0.000000   10.0000     0.8898
   -9.800     0.000  -0.762655   0.015544   0.007119   0.022663   0.000000   0.000000   0.160774   0.000000   0.000000   10.0000     0.8871
   -9.700     0.000  -0.752664   0.015150   0.007086   0.022236   0.000000   0.000000   0.158186   0.000000   0.000000   10.0000     0.8846
   -9.600     0.000  -0.742761   0.014765   0.007066   0.021830   0.000000   0.000000   0.155649   0.000000  -0.000000   10.0000     0.8820
   -9.500     0.000  -0.732863   0.014386   0.007049   0.021435   0.000000   0.000000   0.153117  -0.000000  -0.000000   10.0000     0.8795
   -9.400     0.000  -0.723088   0.014017   0.007033   0.021050   0.000000   0.000000   0.150646   0.000000   0.000000   10.0000     0.8771
   -9.300     0.000  -0.713463   0.013657   0.007018   0.020675   0.000000   0.000000   0.148247   0.000000   0.000000   10.0000     0.8750
   -9.200     0.000  -0.704062   0.013308   0.007005   0.020313   0.000000   0.000000   0.145957   0.000000  -0.000000   10.0000     0.8732
   -9.100     0.000  -0.695036   0.012972   0.006994   0.019965   0.000000   0.000000   0.143846   0.000000  -0.000000   10.0000     0.8720
   -9.000     0.000  -0.686495   0.012650   0.006987   0.019637   0.000000   0.000000   0.141969   0.000000  -0.000000   10.0000     0.8715
   -8.900     0.000  -0.677943   0.012333   0.006980   0.019314   0.000000  -0.000000   0.140089   0.000000  -0.000000   10.0000     0.8711
   -8.800     0.000  -0.669346   0.012020   0.006971   0.018991   0.000000   0.000000   0.138188   0.000000   0.000000   10.0000     0.8705
   -8.700     0.000  -0.660727   0.011710   0.006960   0.018671   0.000000   0.000000   0.136274   0.000000   0.000000   10.0000     0.8699
   -8.600     0.000  -0.652052   0.011403   0.006947   0.018350   0.000000   0.000000   0.134332   0.000000   0.000000   10.0000     0.8691
   -8.500     0.000  -0.643240   0.011096   0.006930   0.018026   0.000000   0.000000   0.132324  -0.000000  -0.000000   10.0000     0.8680
   -8.400     0.000  -0.634415   0.010793   0.006911   0.017704   0.000000   0.000000   0.130308   0.000000   0.000000   10.0000     0.8668
   -8.300     0.000  -0.625577   0.010493   0.006893   0.017386   0.000000   0.000000   0.128286   0.000000   0.000000   10.0000     0.8656
   -8.200     0.000  -0.616709   0.010197   0.006876   0.017073   0.000000   0.000000   0.126251   0.000000  -0.000000   10.0000     0.8642
   -8.100     0.000  -0.607799   0.009904   0.006861   0.016765   0.000000   0.000000   0.124197  -0.000000  -0.000000   10.0000     0.8628
   -8.000     0.000  -0.598791   0.009614   0.006848   0.016462   0.000000   0.000000   0.122100   0.000000   0.000000   10.0000     0.8611
   -7.900     0.000  -0.589760   0.009324   0.006838   0.016163   0.000000   0.000000   0.119987   0.000000   0.000000   10.0000     0.8592
   -7.800     0.000  -0.580729   0.009042   0.006831   0.015873   0.000000   0.000000   0.117880   0.000000   0.000000   10.0000     0.8573
   -7.700     0.000  -0.571693   0.008764   0.006824   0.015588   0.000000   0.000000   0.115771   0.000000   0.000000   10.0000     0.8553
   -7.600     0.000  -0.562662   0.008491   0.006816   0.015308   0.000000   0.000000   0.113665   0.000000   0.000000   10.0000     0.8533
   -7.500     0.000  -0.553646   0.008223   0.006807   0.015030   0.000000   0.000000   0.111565   0.000000   0.000000   10.0000     0.8512
   -7.400     0.000  -0.544655   0.007959   0.006796   0.014755   0.000000   0.000000   0.109475  -0.000000  -0.000000   10.0000     0.8490
   -7.300     0.000  -0.535657   0.007699   0.006786   0.014485   0.000000   0.000000   0.107383   0.000000   0.000000   10.0000     0.8468
   -7.200     0.000  -0.526619   0.007445   0.006775   0.014220   0.000000   0.000000   0.105278   0.000000   0.000000   10.0000     0.8444
   -7.100     0.000  -0.517626   0.007195   0.006769   0.013964   0.000000   0.000000   0.103190   0.000000   0.000000   10.0000     0.8421
   -7.000     0.000  -0.508632   0.006949   0.006765   0.013714   0.000000   0.000000   0.101101   0.000000   0.000000   10.0000     0.8396
   -6.900     0.000  -0.499606   0.006706   0.006767   0.013473   0.000000   0.000000   0.098998   0.000000  -0.000000   10.0000     0.8369
   -6.800     0.000  -0.490587   0.006468   0.006773   0.013241   0.000000   0.000000   0.096900   0.000000   0.000000   10.0000     0.8341
   -6.700     0.000  -0.481621   0.006236   0.006782   0.013017   0.000000   0.000000   0.094825   0.000000   0.000000   10.0000     0.8314
   -6.600     0.000  -0.472675   0.006008   0.006792   0.012800   0.000000   0.000000   0.092760   0.000000   0.000000   10.0000     0.8287
   -6.500     0.000  -0.463764   0.005785   0.006805   0.012590   0.000000   0.000000   0.090710   0.000000  -0.000000   10.0000     0.8259
   -6.400     0.000  -0.454985   0.005567   0.006828   0.012395   0.000000   0.000000   0.088718   0.000000   0.000000   10.0000     0.8233
   -6.300     0.000  -0.446426   0.005357   0.006864   0.012222   0.000000   0.000000   0.086824   0.000000   0.000000   10.0000     0.8211
   -6.200     0.000  -0.437835   0.005151   0.006899   0.012051   0.000000   0.000000   0.084916   0.000000  -0.000000   10.0000     0.8187
   -6.100     0.000  -0.429219   0.004949   0.006933   0.011882   0.000000   0.000000   0.082997   0.000000  -0.000000   10.0000     0.8162
   -6.000     0.000  -0.420557   0.004749   0.006964   0.011713   0.000000   0.000000   0.081056   0.000000   0.000000   10.0000     0.8134
   -5.900     0.000  -0.411818   0.004552   0.006991   0.011543   0.000000   0.000000   0.079080   0.000000   0.000000   10.0000     0.8102
   -5.800     0.000  -0.402876   0.004357   0.007007   0.011364   0.000000   0.000000   0.077010   0.000000   0.000000   10.0000     0.8060
   -5.700     0.000  -0.393892   0.004165   0.007020   0.011185   0.000000   0.000000   0.074921   0.000000   0.000000   10.0000     0.8016
   -5.600     0.000  -0.384893   0.003977   0.007033   0.011010   0.000000   0.000000   0.072824   0.000000   0.000000   10.0000     0.7970
   -5.500     0.000  -0.375885   0.003793   0.007046   0.010838   0.000000   0.000000   0.070723   0.000000   0.000000   10.0000     0.7923
   -5.400     0.000  -0.366841   0.003612   0.007059   0.010671   0.000000   0.000000   0.068606   0.000000   0.000000   10.0000     0.7873
   -5.300     0.000  -0.357726   0.003435   0.007071   0.010506   0.000000   0.000000   0.066458   0.000000   0.000000   10.0000     0.7815
   -5.200     0.000  -0.348539   0.003262   0.007082   0.010344   0.000000   0.000000   0.064280   0.000000   0.000000   10.0000     0.7751
   -5.100     0.000  -0.339354   0.003093   0.007094   0.010187   0.000000   0.000000   0.062102   0.000000   0.000000   10.0000     0.7685
   -5.000     0.000  -0.330162   0.002928   0.007105   0.010033   0.000000   0.000000   0.059921   0.000000  -0.000000   10.0000     0.7614
   -4.900     0.000  -0.320968   0.002768   0.007114   0.009882   0.000000   0.000000   0.057739   0.000000   0.000000   10.0000     0.7541
   -4.800     0.000  -0.311767   0.002612   0.007122   0.009734   0.000000   0.000000   0.055554   0.000000   0.000000   10.0000     0.7464
   -4.700     0.000  -0.302549   0.002461   0.007124   0.009585   0.000000   0.000000   0.053362   0.000000   0.000000   10.0000     0.7375
   -4.600     0.000  -0.293324   0.002314   0.007125   0.009439   0.000000   0.000000   0.051167   0.000000   0.000000   10.0000     0.7279
   -4.500     0.000  -0.284099   0.002171   0.007127   0.009297   0.000000   0.000000   0.048971   0.000000   0.000000   10.0000     0.7182
   -4.400     0.000  -0.274868   0.002033   0.007128   0.009160   0.000000   0.000000   0.046773   0.000000   0.000000   10.0000     0.7082
   -4.300     0.000  -0.265627   0.001899   0.007129   0.009028   0.000000   0.000000   0.044571   0.000000   0.000000   10.0000     0.6973
   -4.200     0.000  -0.256358   0.001770   0.007129   0.008899   0.000000   0.000000   0.042357   0.000000  -0.000000   10.0000     0.6843
   -4.100     0.000  -0.247074   0.001644   0.007129   0.008774   0.000000   0.000000   0.040136   0.000000   0.000000   10.0000     0.6699
   -4.000     0.000  -0.237786   0.001524   0.007130   0.008653   0.000000   0.000000   0.037914   0.000000  -0.000000   10.0000     0.6552
   -3.900     0.000  -0.228495   0.001408   0.007130   0.008538   0.000000   0.000000   0.035690   0.000000   0.000000   10.0000     0.6401
   -3.800     0.000  -0.219196   0.001296   0.007131   0.008427   0.000000   0.000000   0.033464   0.000000   0.000000   10.0000     0.6242
   -3.700     0.000  -0.209880   0.001189   0.007133   0.008323   0.000000   0.000000   0.031229   0.000000   0.000000   10.0000     0.6063
   -3.600     0.000  -0.200522   0.001086   0.007138   0.008225   0.000000   0.000000   0.028978   0.000000   0.000000   10.0000     0.5830
   -3.500     0.000  -0.191164   0.000988   0.007144   0.008132   0.000000   0.000000   0.026727   0.000000   0.000000   10.0000     0.5593
   -3.400     0.000  -0.181806   0.000895   0.007149   0.008043   0.000000   0.000000   0.024476   0.000000   0.000000   10.0000     0.5352
   -3.300     0.000  -0.172449   0.000806   0.007153   0.007959   0.000000   0.000000   0.022225   0.000000  -0.000000   10.0000     0.5090
   -3.200     0.000  -0.163096   0.000722   0.007157   0.007879   0.000000   0.000000   0.019976   0.000000   0.000000   10.0000     0.4792
   -3.100     0.000  -0.153751   0.000642   0.007160   0.007802   0.000000   0.000000   0.017731   0.000000   0.000000   10.0000     0.4342
   -3.000     0.000  -0.144411   0.000567   0.007161   0.007728   0.000000   0.000000   0.015489   0.000000   0.000000   10.0000     0.3802
   -2.900     0.000  -0.135071   0.000497   0.007162   0.007659   0.000000   0.000000   0.013246   0.000000   0.000000   10.0000     0.3240
   -2.800     0.000  -0.125731   0.000432   0.007163   0.007595   0.000000   0.000000   0.011004   0.000000   0.000000   10.0000     0.2663
   -2.700     0.000  -0.116391   0.000371   0.007165   0.007535   0.000000   0.000000   0.008761   0.000000   0.000000   10.0000     0.2029
   -2.600     0.000  -0.107051   0.000314   0.007165   0.007480   0.000000   0.000000   0.006519   0.000000  -0.000000   10.0000     0.1205
   -2.500     0.000  -0.097712   0.000263   0.007165   0.007428   0.000000   0.000000   0.004278   0.000000   0.000000   10.0000    -0.0088
   -2.400     0.000  -0.088373   0.000216   0.007164   0.007380   0.000000   0.000000   0.002036   0.000000   0.000000   10.0000    -0.1665
   -2.300     0.000  -0.079032   0.000173   0.007164   0.007337   0.000000   0.000000  -0.000207   0.000000   0.000000   10.0000    -0.3505
   -2.200     0.000  -0.069690   0.000136   0.007164   0.007299   0.000000   0.000000  -0.002450   0.000000   0.000000   10.0000    -0.5921
   -2.100     0.000  -0.060339   0.000102   0.007164   0.007266   0.000000   0.000000  -0.004697   0.000000   0.000000   10.0000    -1.0485
   -2.000     0.000  -0.050931   0.000074   0.007165   0.007239   0.000000   0.000000  -0.006968   0.000000  -0.000000   10.0000    -3.1184
   -1.900     0.000  -0.041500   0.000050   0.007168   0.007217   0.000000   0.000000  -0.009250   0.000000   0.000000   10.0000    -5.8973
   -1.800     0.000  -0.032069   0.000030   0.007170   0.007201   0.000000   0.000000  -0.011531   0.000000   0.000000   10.0000    -8.6759
   -1.700     0.000  -0.022639   0.000016   0.007173   0.007188   0.000000   0.000000  -0.013812   0.000000   0.000000   10.0000   -11.4544
   -1.600     0.000  -0.013208   0.000006   0.007175   0.007181   0.000000   0.000000  -0.016093   0.000000   0.000000   10.0000   -14.2323
   -1.500     0.000  -0.003788   0.000001   0.007178   0.007178   0.000000  -0.000000  -0.018369   0.000000  -0.000000   10.0000   -16.2092
   -1.400     0.000   0.005561   0.000000   0.007183   0.007183   0.000000  -0.000000  -0.020613   0.000000  -0.000000   10.0000   -12.8647
   -1.300     0.000   0.014912   0.000004   0.007188   0.007193   0.000000  -0.000000  -0.022858   0.000000   0.000000   10.0000    -9.5220
   -1.200     0.000   0.024263   0.000013   0.007194   0.007207   0.000000  -0.000000  -0.025102   0.000000   0.000000   10.0000    -6.1787
   -1.100     0.000   0.033615   0.000027   0.007199   0.007226   0.000000  -0.000000  -0.027347   0.000000  -0.000000   10.0000    -2.8353
   -1.000     0.000   0.042966   0.000045   0.007205   0.007249   0.000000  -0.000000  -0.029591   0.000000   0.000000   10.0000     0.5082
   -0.900     0.000   0.052344   0.000068   0.007206   0.007274   0.000000  -0.000000  -0.031847   0.000000   0.000000   10.0000     2.3121
   -0.800     0.000   0.061748   0.000095   0.007204   0.007300   0.000000  -0.000000  -0.034115   0.000000   0.000000   10.0000     2.4235
   -0.700     0.000   0.071155   0.000128   0.007202   0.007329   0.000000  -0.000000  -0.036385   0.000000   0.000000   10.0000     2.3472
   -0.600     0.000   0.080563   0.000164   0.007199   0.007363   0.000000  -0.000000  -0.038655   0.000000  -0.000000   10.0000     2.2406
   -0.500     0.000   0.089970   0.000206   0.007196   0.007402   0.000000  -0.000000  -0.040925   0.000000   0.000000   10.0000     2.0915
   -0.400     0.000   0.099375   0.000252   0.007193   0.007446   0.000000  -0.000000  -0.043193   0.000000  -0.000000   10.0000     1.9503
   -0.300     0.000   0.108751   0.000303   0.007195   0.007499   0.000000  -0.000000  -0.045449   0.000000   0.000000   10.0000     1.8901
   -0.200     0.000   0.118119   0.000359   0.007198   0.007557   0.000000  -0.000000  -0.047700   0.000000   0.000000   10.0000     1.8503
   -0.100     0.000   0.127486   0.000419   0.007202   0.007621   0.000000  -0.000000  -0.049951   0.000000   0.000000   10.0000     1.8154
    0.000     0.000   0.136852   0.000484   0.007206   0.007690   0.000000  -0.000000  -0.052201   0.000000   0.000000   10.0000     1.7789
    0.100     0.000   0.146217   0.000553   0.007209   0.007763   0.000000  -0.000000  -0.054451   0.000000   0.000000   10.0000     1.7374
    0.200     0.000   0.155584   0.000628   0.007214   0.007841   0.000000  -0.000000  -0.056702   0.000000   0.000000   10.0000     1.6966
    0.300     0.000   0.164951   0.000706   0.007218   0.007924   0.000000  -0.000000  -0.058953   0.000000   0.000000   10.0000     1.6576
    0.400     0.000   0.174319   0.000790   0.007223   0.008012   0.000000  -0.000000  -0.061203   0.000000  -0.000000   10.0000     1.6204
    0.500     0.000   0.183686   0.000878   0.007227   0.008105   0.000000  -0.000000  -0.063454   0.000000  -0.000000   10.0000     1.5833
    0.600     0.000   0.193053   0.000971   0.007232   0.008203   0.000000  -0.000000  -0.065705  -0.000000   0.000000   10.0000     1.5462
    0.700     0.000   0.202425   0.001068   0.007237   0.008305   0.000000  -0.000000  -0.067957   0.000000   0.000000   10.0000     1.5112
    0.800     0.000   0.211817   0.001170   0.007241   0.008411   0.000000  -0.000000  -0.070218   0.000000   0.000000   10.0000     1.4876
    0.900     0.000   0.221215   0.001277   0.007245   0.008522   0.000000  -0.000000  -0.072482   0.000000   0.000000   10.0000     1.4678
    1.000     0.000   0.230616   0.001389   0.007249   0.008638   0.000000  -0.000000  -0.074747   0.000000   0.000000   10.0000     1.4494
    1.100     0.000   0.240019   0.001506   0.007253   0.008758   0.000000  -0.000000  -0.077014   0.000000   0.000000   10.0000     1.4325
    1.200     0.000   0.249423   0.001627   0.007257   0.008883   0.000000  -0.000000  -0.079280   0.000000   0.000000   10.0000     1.4158
    1.300     0.000   0.258780   0.001752   0.007262   0.009014   0.000000  -0.000000  -0.081526   0.000000   0.000000   10.0000     1.4009
    1.400     0.000   0.268097   0.001882   0.007267   0.009149   0.000000  -0.000000  -0.083755   0.000000  -0.000000   10.0000     1.3882
    1.500     0.000   0.277401   0.002016   0.007273   0.009290   0.000000  -0.000000  -0.085979   0.000000   0.000000   10.0000     1.3763
    1.600     0.000   0.286699   0.002155   0.007280   0.009435   0.000000  -0.000000  -0.088199   0.000000   0.000000   10.0000     1.3652
    1.700     0.000   0.295992   0.002298   0.007286   0.009584   0.000000  -0.000000  -0.090417   0.000000   0.000000   10.0000     1.3542
    1.800     0.000   0.305283   0.002446   0.007292   0.009738   0.000000  -0.000000  -0.092633   0.000000   0.000000   10.0000     1.3437
    1.900     0.000   0.314582   0.002598   0.007298   0.009895   0.000000  -0.000000  -0.094853   0.000000  -0.000000   10.0000     1.3344
    2.000     0.000   0.323884   0.002755   0.007302   0.010057   0.000000  -0.000000  -0.097075   0.000000   0.000000   10.0000     1.3257
    2.100     0.000   0.333185   0.002916   0.007307   0.010223   0.000000  -0.000000  -0.099296   0.000000   0.000000   10.0000     1.3174
    2.200     0.000   0.342485   0.003082   0.007312   0.010394   0.000000  -0.000000  -0.101516   0.000000   0.000000   10.0000     1.3096
    2.300     0.000   0.351784   0.003253   0.007316   0.010569   0.000000  -0.000000  -0.103736   0.000000   0.000000   10.0000     1.3020
    2.400     0.000   0.361089   0.003428   0.007320   0.010748   0.000000  -0.000000  -0.105959   0.000000   0.000000   10.0000     1.2951
    2.500     0.000   0.370397   0.003608   0.007323   0.010931   0.000000  -0.000000  -0.108182   0.000000   0.000000   10.0000     1.2887
    2.600     0.000   0.379706   0.003793   0.007326   0.011119   0.000000  -0.000000  -0.110407   0.000000   0.000000   10.0000     1.2825
    2.700     0.000   0.389015   0.003982   0.007329   0.011311   0.000000  -0.000000  -0.112632   0.000000   0.000000   10.0000     1.2764
    2.800     0.000   0.398326   0.004176   0.007331   0.011507   0.000000  -0.000000  -0.114857   0.000000   0.000000   10.0000     1.2704
    2.900     0.000   0.407618   0.004374   0.007335   0.011709   0.000000  -0.000000  -0.117074   0.000000   0.000000   10.0000     1.2647
    3.000     0.000   0.416863   0.004576   0.007341   0.011917   0.000000  -0.000000  -0.119271   0.000000   0.000000   10.0000     1.2595
    3.100     0.000   0.426088   0.004782   0.007349   0.012131   0.000000  -0.000000  -0.121460   0.000000   0.000000   10.0000     1.2545
    3.200     0.000   0.435305   0.004993   0.007357   0.012350   0.000000  -0.000000  -0.123644   0.000000  -0.000000   10.0000     1.2495
    3.300     0.000   0.444513   0.005208   0.007365   0.012573   0.000000  -0.000000  -0.125824   0.000000   0.000000   10.0000     1.2447
    3.400     0.000   0.453717   0.005427   0.007374   0.012801   0.000000  -0.000000  -0.128003   0.000000  -0.000000   10.0000     1.2399
    3.500     0.000   0.462920   0.005651   0.007382   0.013033   0.000000  -0.000000  -0.130181   0.000000   0.000000   10.0000     1.2353
    3.600     0.000   0.472118   0.005879   0.007390   0.013269   0.000000   0.000000  -0.132357   0.000000   0.000000   10.0000     1.2311
    3.700     0.000   0.481311   0.006111   0.007398   0.013510   0.000000  -0.000000  -0.134530   0.000000  -0.000000   10.0000     1.2270
    3.800     0.000   0.490503   0.006348   0.007406   0.013755   0.000000  -0.000000  -0.136703   0.000000   0.000000   10.0000     1.2230
    3.900     0.000   0.499696   0.006590   0.007414   0.014004   0.000000  -0.000000  -0.138876   0.000000  -0.000000   10.0000     1.2190
    4.000     0.000   0.508883   0.006836   0.007420   0.014256   0.000000  -0.000000  -0.141047   0.000000   0.000000   10.0000     1.2151
    4.100     0.000   0.518060   0.007086   0.007425   0.014511   0.000000  -0.000000  -0.143214   0.000000   0.000000   10.0000     1.2115
    4.200     0.000   0.527233   0.007341   0.007429   0.014769   0.000000  -0.000000  -0.145379   0.000000   0.000000   10.0000     1.2079
    4.300     0.000   0.536397   0.007599   0.007432   0.015031   0.000000  -0.000000  -0.147540   0.000000   0.000000   10.0000     1.2045
    4.400     0.000   0.545561   0.007862   0.007435   0.015298   0.000000  -0.000000  -0.149701   0.000000  -0.000000   10.0000     1.2011
    4.500     0.000   0.554715   0.008130   0.007439   0.015568   0.000000  -0.000000  -0.151857   0.000000   0.000000   10.0000     1.1978
    4.600     0.000   0.563803   0.008400   0.007445   0.015845   0.000000  -0.000000  -0.153986   0.000000   0.000000   10.0000     1.1945
    4.700     0.000   0.572858   0.008675   0.007453   0.016128   0.000000  -0.000000  -0.156099   0.000000   0.000000   10.0000     1.1914
    4.800     0.000   0.581898   0.008953   0.007462   0.016415   0.000000  -0.000000  -0.158207   0.000000   0.000000   10.0000     1.1883
    4.900     0.000   0.590923   0.009235   0.007471   0.016706   0.000000  -0.000000  -0.160307   0.000000   0.000000   10.0000     1.1852
    5.000     0.000   0.599947   0.009522   0.007479   0.017001   0.000000  -0.000000  -0.162408   0.000000   0.000000   10.0000     1.1822
    5.100     0.000   0.608961   0.009812   0.007488   0.017300   0.000000  -0.000000  -0.164503   0.000000   0.000000   10.0000     1.1794
    5.200     0.000   0.617986   0.010107   0.007495   0.017602   0.000000  -0.000000  -0.166602   0.000000   0.000000   10.0000     1.1766
    5.300     0.000   0.627014   0.010407   0.007502   0.017908   0.000000  -0.000000  -0.168703   0.000000   0.000000   10.0000     1.1739
    5.400     0.000   0.636047   0.010711   0.007508   0.018218   0.000000  -0.000000  -0.170806   0.000000   0.000000   10.0000     1.1712
    5.500     0.000   0.645073   0.011019   0.007514   0.018532   0.000000  -0.000000  -0.172906   0.000000   0.000000   10.0000     1.1685
    5.600     0.000   0.654088   0.011330   0.007521   0.018851   0.000000  -0.000000  -0.175000   0.000000   0.000000   10.0000     1.1659
    5.700     0.000   0.663087   0.011646   0.007529   0.019176   0.000000  -0.000000  -0.177088   0.000000   0.000000   10.0000     1.1634
    5.800     0.000   0.672073   0.011966   0.007539   0.019505   0.000000  -0.000000  -0.179171   0.000000   0.000000   10.0000     1.1610
    5.900     0.000   0.681056   0.012290   0.007548   0.019838   0.000000  -0.000000  -0.181252   0.000000   0.000000   10.0000     1.1585
    6.000     0.000   0.690032   0.012618   0.007559   0.020177   0.000000  -0.000000  -0.183330   0.000000   0.000000   10.0000     1.1561
    6.100     0.000   0.699010   0.012950   0.007569   0.020520   0.000000  -0.000000  -0.185409   0.000000  -0.000000   10.0000     1.1538
    6.200     0.000   0.707966   0.013287   0.007583   0.020870   0.000000  -0.000000  -0.187479   0.000000  -0.000000   10.0000     1.1514
    6.300     0.000   0.716901   0.013627   0.007600   0.021227   0.000000  -0.000000  -0.189540   0.000000  -0.000000   10.0000     1.1492
    6.400     0.000   0.725793   0.013973   0.007619   0.021592   0.000000  -0.000000  -0.191587  -0.000000  -0.000000   10.0000     1.1470
    6.500     0.000   0.734728   0.014318   0.007639   0.021957   0.000000  -0.000000  -0.193643   0.000000  -0.000000   10.0000     1.1447
    6.600     0.000   0.743641   0.014669   0.007660   0.022329   0.000000  -0.000000  -0.195693   0.000000  -0.000000   10.0000     1.1425
    6.700     0.000   0.752562   0.015025   0.007681   0.022706   0.000000  -0.000000  -0.197747   0.000000   0.000000   10.0000     1.1404
    6.800     0.000   0.761506   0.015386   0.007703   0.023089   0.000000  -0.000000  -0.199812   0.000000   0.000000   10.0000     1.1383
    6.900     0.000   0.770457   0.015751   0.007727   0.023478   0.000000  -0.000000  -0.201881   0.000000   0.000000   10.0000     1.1364
    7.000     0.000   0.779414   0.016120   0.007751   0.023871   0.000000  -0.000000  -0.203952   0.000000   0.000000   10.0000     1.1344
    7.100     0.000   0.788383   0.016494   0.007775   0.024270   0.000000  -0.000000  -0.206029   0.000000   0.000000   10.0000     1.1325
    7.200     0.000   0.797352   0.016873   0.007799   0.024672   0.000000  -0.000000  -0.208106   0.000000   0.000000   10.0000     1.1306
    7.300     0.000   0.806234   0.017254   0.007825   0.025079   0.000000  -0.000000  -0.210147  -0.000000  -0.000000   10.0000     1.1286
    7.400     0.000   0.815076   0.017638   0.007854   0.025491   0.000000  -0.000000  -0.212170   0.000000   0.000000   10.0000     1.1267
    7.500     0.000   0.823885   0.018025   0.007883   0.025908   0.000000  -0.000000  -0.214178   0.000000   0.000000   10.0000     1.1247
    7.600     0.000   0.832690   0.018416   0.007913   0.026329   0.000000  -0.000000  -0.216185   0.000000   0.000000   10.0000     1.1228
    7.700     0.000   0.841461   0.018810   0.007943   0.026753   0.000000  -0.000000  -0.218177   0.000000   0.000000   10.0000     1.1209
    7.800     0.000   0.850378   0.019211   0.007960   0.027171   0.000000  -0.000000  -0.220241   0.000000   0.000000   10.0000     1.1191
    7.900     0.000   0.859531   0.019622   0.007954   0.027577   0.000000  -0.000000  -0.222420   0.000000   0.000000   10.0000     1.1177
    8.000     0.000   0.868777   0.020042   0.007939   0.027981   0.000000  -0.000000  -0.224647   0.000000   0.000000   10.0000     1.1165
    8.100     0.000   0.878057   0.020468   0.007919   0.028387   0.000000  -0.000000  -0.226893   0.000000   0.000000   10.0000     1.1153
    8.200     0.000   0.887404   0.020901   0.007892   0.028793   0.000000  -0.000000  -0.229173   0.000000   0.000000   10.0000     1.1142
    8.300     0.000   0.896859   0.021343   0.007862   0.029205   0.000000  -0.000000  -0.231506   0.000000   0.000000   10.0000     1.1132
    8.400     0.000   0.906980   0.021807   0.007865   0.029672   0.000000  -0.000000  -0.234157   0.000000   0.000000   10.0000     1.1129
    8.500     0.000   0.917354   0.022286   0.007882   0.030168   0.000000  -0.000000  -0.236932   0.000000   0.000000   10.0000     1.1130
    8.600     0.000   0.928120   0.022785   0.007906   0.030691   0.000000  -0.000000  -0.239901   0.000000   0.000000   10.0000     1.1134
    8.700     0.000   0.938862   0.023292   0.007929   0.031221   0.000000  -0.000000  -0.242862   0.000000   0.000000   10.0000     1.1139
    8.800     0.000   0.949929   0.023811   0.007967   0.031778   0.000000  -0.000000  -0.245972   0.000000   0.000000   10.0000     1.1147
    8.900     0.000   0.960739   0.024340   0.008008   0.032348   0.000000  -0.000000  -0.248978   0.000000   0.000000   10.0000     1.1153
    9.000     0.000   0.971080   0.024859   0.008055   0.032914   0.000000  -0.000000  -0.251757   0.000000   0.000000   10.0000     1.1153
    9.100     0.000   0.981298   0.025377   0.008106   0.033483   0.000000  -0.000000  -0.254475   0.000000   0.000000   10.0000     1.1152
    9.200     0.000   0.991511   0.025903   0.008168   0.034071   0.000000  -0.000000  -0.257195   0.000000   0.000000   10.0000     1.1151
    9.300     0.000   1.001739   0.026442   0.008226   0.034667   0.000000  -0.000000  -0.259932   0.000000  -0.000000   10.0000     1.1151
    9.400     0.000   1.011854   0.026977   0.008285   0.035261   0.000000  -0.000000  -0.262609   0.000000  -0.000000   10.0000     1.1149
    9.500     0.000   1.022107   0.027518   0.008348   0.035866   0.000000  -0.000000  -0.265353   0.000000   0.000000   10.0000     1.1148
    9.600     0.000   1.032567   0.028067   0.008412   0.036479   0.000000  -0.000000  -0.268192   0.000000   0.000000   10.0000     1.1149
    9.700     0.000   1.043038   0.028632   0.008477   0.037109   0.000000  -0.000000  -0.271053   0.000000   0.000000   10.0000     1.1150
    9.800     0.000   1.053553   0.029202   0.008546   0.037748   0.000000  -0.000000  -0.273932   0.000000   0.000000   10.0000     1.1152
    9.900     0.000   1.064031   0.029782   0.008624   0.038406   0.000000  -0.000000  -0.276804   0.000000   0.000000   10.0000     1.1154
   10.000     0.000   1.074756   0.030368   0.008705   0.039073   0.000000  -0.000000  -0.279784   0.000000   0.000000   10.0000     1.1157
   10.100     0.000   1.085585   0.030973   0.008787   0.039760   0.000000  -0.000000  -0.282830   0.000000   0.000000   10.0000     1.1162
   10.200     0.000   1.096534   0.031579   0.008870   0.040449   0.000000  -0.000000  -0.285923   0.000000   0.000000   10.0000     1.1167
   10.300     0.000   1.107546   0.032198   0.008954   0.041152   0.000000  -0.000000  -0.289053   0.000000   0.000000   10.0000     1.1173
   10.400     0.000   1.118588   0.032833   0.009038   0.041871   0.000000  -0.000000  -0.292210  -0.000000  -0.000000   10.0000     1.1179
   10.500     0.000   1.129829   0.033469   0.009120   0.042589   0.000000  -0.000000  -0.295444   0.000000  -0.000000   10.0000     1.1186
   10.600     0.000   1.141165   0.034119   0.009205   0.043324   0.000000  -0.000000  -0.298739   0.000000   0.000000   10.0000     1.1194
   10.700     0.000   1.152713   0.034785   0.009293   0.044079   0.000000  -0.000000  -0.302139   0.000000   0.000000   10.0000     1.1204
   10.800     0.000   1.164313   0.035462   0.009382   0.044844   0.000000  -0.000000  -0.305568   0.000000   0.000000   10.0000     1.1214
   10.900     0.000   1.176059   0.036153   0.009473   0.045626   0.000000  -0.000000  -0.309069   0.000000   0.000000   10.0000     1.1225
   11.000     0.000   1.187842   0.036854   0.009564   0.046418   0.000000  -0.000000  -0.312590   0.000000   0.000000   10.0000     1.1236
   11.100     0.000   1.199620   0.037563   0.009657   0.047220   0.000000  -0.000000  -0.316111   0.000000   0.000000   10.0000     1.1247
   11.200     0.000   1.210633   0.038262   0.009758   0.048020   0.000000  -0.000000  -0.319286   0.000000   0.000000   10.0000     1.1253
   11.300     0.000   1.220951   0.038945   0.009862   0.048807   0.000000  -0.000000  -0.322140  -0.000000  -0.000000   10.0000     1.1253
   11.400     0.000   1.231214   0.039622   0.009966   0.049588   0.000000  -0.000000  -0.324957   0.000000   0.000000   10.0000     1.1252
   11.500     0.000   1.240914   0.040276   0.010071   0.050347   0.000000  -0.000000  -0.327505  -0.000000  -0.000000   10.0000     1.1246
   11.600     0.000   1.250591   0.040938   0.010177   0.051114   0.000000  -0.000000  -0.330046   0.000000  -0.000000   10.0000     1.1241
   11.700     0.000   1.259945   0.041590   0.010286   0.051876   0.000000  -0.000000  -0.332436   0.000000   0.000000   10.0000     1.1233
   11.800     0.000   1.268670   0.042208   0.010399   0.052607   0.000000  -0.000000  -0.334521  -0.000000  -0.000000   10.0000     1.1220
   11.900     0.000   1.277108   0.042820   0.010513   0.053333   0.000000  -0.000000  -0.336474   0.000000  -0.000000   10.0000     1.1205
   12.000     0.000   1.285303   0.043424   0.010629   0.054054   0.000000  -0.000000  -0.338316   0.000000   0.000000   10.0000     1.1189
   12.100     0.000   1.293349   0.044018   0.010747   0.054766   0.000000  -0.000000  -0.340080   0.000000   0.000000   10.0000     1.1171
   12.200     0.000   1.301305   0.044611   0.010865   0.055476   0.000000  -0.000000  -0.341801   0.000000   0.000000   10.0000     1.1153
   12.300     0.000   1.309160   0.045197   0.010983   0.056180   0.000000  -0.000000  -0.343470   0.000000   0.000000   10.0000     1.1134
   12.400     0.000   1.316349   0.045748   0.011103   0.056851   0.000000  -0.000000  -0.344826   0.000000   0.000000   10.0000     1.1111
   12.500     0.000   1.323490   0.046296   0.011223   0.057519   0.000000  -0.000000  -0.346157   0.000000   0.000000   10.0000     1.1087
   12.600     0.000   1.330617   0.046853   0.011344   0.058196   0.000000  -0.000000  -0.347490   0.000000   0.000000   10.0000     1.1063
   12.700     0.000   1.337731   0.047405   0.011466   0.058871   0.000000  -0.000000  -0.348811   0.000000   0.000000   10.0000     1.1039
   12.800     0.000   1.344792   0.047963   0.011591   0.059554   0.000000  -0.000000  -0.350118   0.000000   0.000000   10.0000     1.1016
   12.900     0.000   1.351727   0.048519   0.011716   0.060235   0.000000  -0.000000  -0.351371  -0.000000  -0.000000   10.0000     1.0992
   13.000     0.000   1.358428   0.049060   0.011844   0.060903   0.000000  -0.000000  -0.352513   0.000000   0.000000   10.0000     1.0966
   13.100     0.000   1.365069   0.049599   0.011972   0.061571   0.000000  -0.000000  -0.353628   0.000000   0.000000   10.0000     1.0940
   13.200     0.000   1.371663   0.050138   0.012102   0.062240   0.000000  -0.000000  -0.354723   0.000000   0.000000   10.0000     1.0914
   13.300     0.000   1.378140   0.050677   0.012234   0.062911   0.000000  -0.000000  -0.355771   0.000000   0.000000   10.0000     1.0888
   13.400     0.000   1.384426   0.051208   0.012370   0.063577   0.000000  -0.000000  -0.356737   0.000000   0.000000   10.0000     1.0861
   13.500     0.000   1.390506   0.051713   0.012507   0.064219   0.000000  -0.000000  -0.357595   0.000000   0.000000   10.0000     1.0832
   13.600     0.000   1.396500   0.052220   0.012643   0.064863   0.000000  -0.000000  -0.358424   0.000000   0.000000   10.0000     1.0803
   13.700     0.000   1.402400   0.052726   0.012780   0.065506   0.000000  -0.000000  -0.359210   0.000000   0.000000   10.0000     1.0773
   13.800     0.000   1.407825   0.053217   0.012915   0.066133   0.000000  -0.000000  -0.359786   0.000000   0.000000   10.0000     1.0741
   13.900     0.000   1.412898   0.053693   0.013052   0.066745   0.000000  -0.000000  -0.360204   0.000000   0.000000   10.0000     1.0707
   14.000     0.000   1.417885   0.054164   0.013190   0.067353   0.000000  -0.000000  -0.360583   0.000000  -0.000000   10.0000     1.0673
   14.100     0.000   1.422501   0.054617   0.013329   0.067946   0.000000  -0.000000  -0.360799   0.000000   0.000000   10.0000     1.0636
   14.200     0.000   1.426948   0.055049   0.013469   0.068519   0.000000  -0.000000  -0.360928   0.000000   0.000000   10.0000     1.0599