xflr5 v6.61

Plane name :        AeroSail 30m 8deg flap
Polar name :        T1-10.0 m/s-LLT
Freestream speed :  10.000 m/s


   alpha      Beta       CL          CDi        CDv        CD         CY         Cl         Cm         Cn        Cni       QInf        XCP
  -10.000     0.000  -0.375088   0.004098   0.006614   0.010712   0.000000   0.000000   0.012064   0.000000   0.000000   10.0000     0.0433
   -9.500     0.000  -0.327561   0.003169   0.006478   0.009646   0.000000   0.000000   0.000266   0.000000   0.000000   10.0000    -0.1221
   -9.000     0.000  -0.280577   0.002331   0.006364   0.008694   0.000000   0.000000  -0.011399   0.000000   0.000000   10.0000    -0.3425
   -8.500     0.000  -0.233414   0.001618   0.006249   0.007867   0.000000   0.000000  -0.023132   0.000000   0.000000   10.0000    -0.6639
   -8.000     0.000  -0.186119   0.001034   0.006149   0.007184   0.000000   0.000000  -0.034906   0.000000   0.000000   10.0000    -1.1469
   -7.500     0.000  -0.138873   0.000582   0.006070   0.006652   0.000000   0.000000  -0.046628   0.000000   0.000000   10.0000    -2.0233
   -7.000     0.000  -0.093126   0.000268   0.006095   0.006363   0.000000   0.000000  -0.057627   0.000000   0.000000   10.0000    -3.7722
   -6.500     0.000  -0.050862   0.000083   0.006368   0.006451   0.000000   0.000000  -0.067007   0.000000   0.000000   10.0000   -10.2341
   -6.000     0.000  -0.010674   0.000005   0.006802   0.006807   0.000000  -0.000000  -0.075426   0.000000  -0.000000   10.0000   -27.3447
   -5.500     0.000   0.033745   0.000029   0.006914   0.006943   0.000000   0.000000  -0.085798   0.000000  -0.000000   10.0000     7.3804
   -5.000     0.000   0.078597   0.000171   0.006995   0.007165   0.000000   0.000000  -0.096357   0.000000  -0.000000   10.0000     6.8833
   -4.500     0.000   0.123765   0.000432   0.007068   0.007501   0.000000  -0.000000  -0.107048   0.000000   0.000000   10.0000     4.6013
   -4.000     0.000   0.169068   0.000815   0.007132   0.007947   0.000000  -0.000000  -0.117789   0.000000   0.000000   10.0000     3.6228
   -3.500     0.000   0.214434   0.001318   0.007185   0.008502   0.000000  -0.000000  -0.128550   0.000000   0.000000   10.0000     3.0786
   -3.000     0.000   0.259827   0.001941   0.007232   0.009174   0.000000  -0.000000  -0.139315   0.000000   0.000000   10.0000     2.7271
   -2.500     0.000   0.305153   0.002685   0.007287   0.009972   0.000000  -0.000000  -0.150038   0.000000   0.000000   10.0000     2.4886
   -2.000     0.000   0.350365   0.003547   0.007345   0.010892   0.000000  -0.000000  -0.160700   0.000000   0.000000   10.0000     2.3125
   -1.500     0.000   0.395559   0.004528   0.007396   0.011924   0.000000  -0.000000  -0.171345   0.000000   0.000000   10.0000     2.1748
   -1.000     0.000   0.440570   0.005625   0.007457   0.013082   0.000000  -0.000000  -0.181898   0.000000   0.000000   10.0000     2.0681
   -0.500     0.000   0.485459   0.006838   0.007514   0.014352   0.000000  -0.000000  -0.192389   0.000000   0.000000   10.0000     1.9804
    0.000     0.000   0.530109   0.008163   0.007579   0.015742   0.000000  -0.000000  -0.202761   0.000000   0.000000   10.0000     1.9071
    0.500     0.000   0.574434   0.009597   0.007652   0.017248   0.000000  -0.000000  -0.212980   0.000000   0.000000   10.0000     1.8448
    1.000     0.000   0.618593   0.011140   0.007721   0.018861   0.000000  -0.000000  -0.223115   0.000000   0.000000   10.0000     1.7915
    1.500     0.000   0.662475   0.012789   0.007796   0.020584   0.000000  -0.000000  -0.233118   0.000000   0.000000   10.0000     1.7445
    2.000     0.000   0.705947   0.014538   0.007880   0.022418   0.000000  -0.000000  -0.242927   0.000000   0.000000   10.0000     1.7031
    2.500     0.000   0.749020   0.016383   0.007970   0.024354   0.000000  -0.000000  -0.252548   0.000000   0.000000   10.0000     1.6661
    3.000     0.000   0.791688   0.018324   0.008065   0.026388   0.000000  -0.000000  -0.261981   0.000000   0.000000   10.0000     1.6317
    3.500     0.000   0.833758   0.020348   0.008166   0.028514   0.000000  -0.000000  -0.271135   0.000000   0.000000   10.0000     1.6005
    4.000     0.000   0.875263   0.022453   0.008280   0.030733   0.000000  -0.000000  -0.280024   0.000000   0.000000   10.0000     1.5718
    4.500     0.000   0.916223   0.024636   0.008404   0.033039   0.000000  -0.000000  -0.288656   0.000000   0.000000   10.0000     1.5450
    5.000     0.000   0.956088   0.026872   0.008539   0.035412   0.000000  -0.000000  -0.296776   0.000000   0.000000   10.0000     1.5192
    5.500     0.000   0.993857   0.029116   0.008693   0.037810   0.000000  -0.000000  -0.303907   0.000000   0.000000   10.0000     1.4937
    6.000     0.000   1.030505   0.031387   0.008869   0.040256   0.000000  -0.000000  -0.310509   0.000000   0.000000   10.0000     1.4688
    6.500     0.000   1.066165   0.033682   0.009097   0.042780   0.000000  -0.000000  -0.316679   0.000000   0.000000   10.0000     1.4449
    7.000     0.000   1.101719   0.036044   0.009357   0.045401   0.000000  -0.000000  -0.322842   0.000000   0.000000   10.0000     1.4224
    7.500     0.000   1.136771   0.038439   0.009655   0.048094   0.000000  -0.000000  -0.328807   0.000000   0.000000   10.0000     1.4009
    8.000     0.000   1.171033   0.040876   0.010007   0.050883   0.000000  -0.000000  -0.334491   0.000000  -0.000000   10.0000     1.3801
    8.500     0.000   1.204371   0.043331   0.010419   0.053750   0.000000  -0.000000  -0.339832   0.000000   0.000000   10.0000     1.3600
    9.000     0.000   1.237045   0.045806   0.010871   0.056677   0.000000  -0.000000  -0.344945   0.000000   0.000000   10.0000     1.3406
    9.500     0.000   1.269247   0.048313   0.011355   0.059669   0.000000  -0.000000  -0.349925   0.000000   0.000000   10.0000     1.3220
   10.000     0.000   1.300813   0.050844   0.011883   0.062727   0.000000  -0.000000  -0.354717   0.000000   0.000000   10.0000     1.3039
   10.500     0.000   1.331207   0.053367   0.012488   0.065854   0.000000  -0.000000  -0.359119   0.000000   0.000000   10.0000     1.2863
   11.000     0.000   1.360022   0.055861   0.013186   0.069047   0.000000  -0.000000  -0.362995   0.000000   0.000000   10.0000     1.2688
   11.500     0.000   1.387417   0.058321   0.013961   0.072282   0.000000  -0.000000  -0.366424  -0.000000  -0.000000   10.0000     1.2516
   12.000     0.000   1.413621   0.060746   0.014816   0.075562   0.000000  -0.000000  -0.369518   0.000000   0.000000   10.0000     1.2347
   12.500     0.000   1.438348   0.063114   0.015767   0.078881   0.000000  -0.000000  -0.372188   0.000000   0.000000   10.0000     1.2181
   13.000     0.000   1.461388   0.065414   0.016830   0.082244   0.000000  -0.000000  -0.374387   0.000000   0.000000   10.0000     1.2016
   13.500     0.000   1.482870   0.067624   0.018027   0.085651   0.000000  -0.000000  -0.376189   0.000000   0.000000   10.0000     1.1855
   14.000     0.000   1.502656   0.069742   0.019377   0.089120   0.000000  -0.000000  -0.377601   0.000000   0.000000   10.0000     1.1696
   14.500     0.000   1.520447   0.071764   0.020908   0.092672   0.000000  -0.000000  -0.378556   0.000000   0.000000   10.0000     1.1541
   15.000     0.000   1.535986   0.073665   0.022668   0.096333   0.000000  -0.000000  -0.379024   0.000000   0.000000   10.0000     1.1389
   15.500     0.000   1.549297   0.075424   0.024688   0.100112   0.000000  -0.000000  -0.379056   0.000000   0.000000   10.0000     1.1241
   16.000     0.000   1.561738   0.077092   0.026994   0.104087   0.000000  -0.000000  -0.379304   0.000000   0.000000   10.0000     1.1106


