xflr5 v6.61

Plane name :        AeroSail 30m 17deg flap UPDATED
Polar name :        T1-10.0 m/s-LLT
Freestream speed :  10.000 m/s


   alpha      Beta       CL          CDi        CDv        CD         CY         Cl         Cm         Cn        Cni       QInf        XCP
  -10.000     0.000   0.242558   0.001531   0.007069   0.008600   0.000000  -0.000000  -0.224209   0.000000  -0.000000   10.0000     4.3493
   -9.900     0.000   0.252266   0.001658   0.007035   0.008693   0.000000  -0.000000  -0.226664   0.000000   0.000000   10.0000     4.2185
   -9.800     0.000   0.261975   0.001789   0.007002   0.008791   0.000000  -0.000000  -0.229119   0.000000   0.000000   10.0000     4.0908
   -9.700     0.000   0.271672   0.001924   0.006966   0.008890   0.000000  -0.000000  -0.231568   0.000000   0.000000   10.0000     3.9757
   -9.600     0.000   0.281356   0.002065   0.006925   0.008990   0.000000  -0.000000  -0.234009   0.000000  -0.000000   10.0000     3.8778
   -9.500     0.000   0.291036   0.002211   0.006883   0.009094   0.000000  -0.000000  -0.236448   0.000000   0.000000   10.0000     3.7871
   -9.400     0.000   0.300713   0.002361   0.006840   0.009202   0.000000   0.000000  -0.238885   0.000000   0.000000   10.0000     3.6997
   -9.300     0.000   0.310390   0.002517   0.006797   0.009314   0.000000  -0.000000  -0.241322   0.000000   0.000000   10.0000     3.6146
   -9.200     0.000   0.320065   0.002677   0.006754   0.009431   0.000000  -0.000000  -0.243757   0.000000   0.000000   10.0000     3.5341
   -9.100     0.000   0.329743   0.002843   0.006714   0.009556   0.000000  -0.000000  -0.246191   0.000000   0.000000   10.0000     3.4636
   -9.000     0.000   0.339423   0.003013   0.006675   0.009688   0.000000  -0.000000  -0.248625   0.000000   0.000000   10.0000     3.3970
   -8.900     0.000   0.349103   0.003188   0.006637   0.009825   0.000000  -0.000000  -0.251058   0.000000   0.000000   10.0000     3.3321
   -8.800     0.000   0.358782   0.003369   0.006599   0.009968   0.000000   0.000000  -0.253491   0.000000   0.000000   10.0000     3.2713
   -8.700     0.000   0.368461   0.003554   0.006561   0.010115   0.000000  -0.000000  -0.255923   0.000000   0.000000   10.0000     3.2116
   -8.600     0.000   0.378095   0.003744   0.006529   0.010273   0.000000  -0.000000  -0.258333   0.000000   0.000000   10.0000     3.1568
   -8.500     0.000   0.387675   0.003937   0.006503   0.010441   0.000000  -0.000000  -0.260717   0.000000   0.000000   10.0000     3.1070
   -8.400     0.000   0.397233   0.004136   0.006480   0.010616   0.000000  -0.000000  -0.263089   0.000000   0.000000   10.0000     3.0591
   -8.300     0.000   0.406784   0.004339   0.006458   0.010796   0.000000  -0.000000  -0.265458   0.000000   0.000000   10.0000     3.0118
   -8.200     0.000   0.416321   0.004546   0.006437   0.010983   0.000000  -0.000000  -0.267820   0.000000   0.000000   10.0000     2.9656
   -8.100     0.000   0.425783   0.004757   0.006419   0.011176   0.000000  -0.000000  -0.270148   0.000000   0.000000   10.0000     2.9210
   -8.000     0.000   0.434830   0.004968   0.006414   0.011382   0.000000  -0.000000  -0.272285   0.000000  -0.000000   10.0000     2.8811
   -7.900     0.000   0.443715   0.005179   0.006415   0.011594   0.000000  -0.000000  -0.274345   0.000000   0.000000   10.0000     2.8436
   -7.800     0.000   0.452456   0.005394   0.006419   0.011813   0.000000  -0.000000  -0.276344   0.000000   0.000000   10.0000     2.8080
   -7.700     0.000   0.461228   0.005609   0.006424   0.012033   0.000000  -0.000000  -0.278344   0.000000  -0.000000   10.0000     2.7730
   -7.600     0.000   0.469897   0.005827   0.006432   0.012259   0.000000  -0.000000  -0.280299   0.000000   0.000000   10.0000     2.7390
   -7.500     0.000   0.477173   0.006033   0.006510   0.012543   0.000000  -0.000000  -0.281639   0.000000   0.000000   10.0000     2.7085
   -7.400     0.000   0.483536   0.006223   0.006640   0.012863   0.000000  -0.000000  -0.282560   0.000000  -0.000000   10.0000     2.6804
   -7.300     0.000   0.489451   0.006405   0.006793   0.013198   0.000000  -0.000000  -0.283274   0.000000  -0.000000   10.0000     2.6540
   -7.200     0.000   0.495028   0.006580   0.006965   0.013545   0.000000  -0.000000  -0.283826   0.000000   0.000000   10.0000     2.6285
   -7.100     0.000   0.500608   0.006754   0.007139   0.013893   0.000000  -0.000000  -0.284373   0.000000   0.000000   10.0000     2.6029
   -7.000     0.000   0.506632   0.006930   0.007288   0.014218   0.000000  -0.000000  -0.285106   0.000000  -0.000000   10.0000     2.5778
   -6.900     0.000   0.513403   0.007121   0.007396   0.014516   0.000000  -0.000000  -0.286173   0.000000   0.000000   10.0000     2.5529
   -6.800     0.000   0.520513   0.007323   0.007483   0.014806   0.000000  -0.000000  -0.287395   0.000000   0.000000   10.0000     2.5281
   -6.700     0.000   0.527836   0.007533   0.007558   0.015091   0.000000  -0.000000  -0.288711   0.000000  -0.000000   10.0000     2.5033
   -6.600     0.000   0.534979   0.007738   0.007642   0.015380   0.000000  -0.000000  -0.289943   0.000000   0.000000   10.0000     2.4791
   -6.500     0.000   0.542321   0.007948   0.007716   0.015664   0.000000  -0.000000  -0.291257   0.000000  -0.000000   10.0000     2.4556
   -6.400     0.000   0.549791   0.008165   0.007782   0.015947   0.000000  -0.000000  -0.292631   0.000000  -0.000000   10.0000     2.4331
   -6.300     0.000   0.557302   0.008387   0.007846   0.016233   0.000000  -0.000000  -0.294024   0.000000   0.000000   10.0000     2.4110
   -6.200     0.000   0.564958   0.008617   0.007901   0.016519   0.000000  -0.000000  -0.295486   0.000000  -0.000000   10.0000     2.3892
   -6.100     0.000   0.572832   0.008864   0.007941   0.016805   0.000000  -0.000000  -0.297057   0.000000   0.000000   10.0000     2.3677
   -6.000     0.000   0.580736   0.009113   0.007980   0.017093   0.000000  -0.000000  -0.298640   0.000000  -0.000000   10.0000     2.3465
   -5.900     0.000   0.588540   0.009367   0.008015   0.017382   0.000000  -0.000000  -0.300181   0.000000  -0.000000   10.0000     2.3267
   -5.800     0.000   0.596077   0.009610   0.008063   0.017674   0.000000  -0.000000  -0.301590   0.000000   0.000000   10.0000     2.3076
   -5.700     0.000   0.603616   0.009844   0.008116   0.017960   0.000000  -0.000000  -0.302973   0.000000   0.000000   10.0000     2.2887
   -5.600     0.000   0.611081   0.010086   0.008167   0.018253   0.000000  -0.000000  -0.304337   0.000000   0.000000   10.0000     2.2702
   -5.500     0.000   0.618597   0.010329   0.008217   0.018546   0.000000  -0.000000  -0.305717   0.000000   0.000000   10.0000     2.2518
   -5.400     0.000   0.625953   0.010574   0.008267   0.018841   0.000000  -0.000000  -0.307025   0.000000   0.000000   10.0000     2.2341
   -5.300     0.000   0.633323   0.010837   0.008301   0.019139   0.000000  -0.000000  -0.308357   0.000000  -0.000000   10.0000     2.2172
   -5.200     0.000   0.640660   0.011099   0.008336   0.019435   0.000000  -0.000000  -0.309666   0.000000  -0.000000   10.0000     2.2006
   -5.100     0.000   0.647952   0.011362   0.008371   0.019733   0.000000  -0.000000  -0.310951   0.000000  -0.000000   10.0000     2.1841
   -5.000     0.000   0.655223   0.011627   0.008406   0.020032   0.000000  -0.000000  -0.312224   0.000000  -0.000000   10.0000     2.1677
   -4.900     0.000   0.662421   0.011892   0.008439   0.020331   0.000000  -0.000000  -0.313461   0.000000  -0.000000   10.0000     2.1516
   -4.800     0.000   0.669390   0.012154   0.008471   0.020625   0.000000  -0.000000  -0.314583   0.000000   0.000000   10.0000     2.1364
   -4.700     0.000   0.676301   0.012414   0.008501   0.020915   0.000000  -0.000000  -0.315669   0.000000   0.000000   10.0000     2.1214
   -4.600     0.000   0.683173   0.012681   0.008529   0.021210   0.000000  -0.000000  -0.316745   0.000000  -0.000000   10.0000     2.1067
   -4.500     0.000   0.690001   0.012947   0.008557   0.021504   0.000000  -0.000000  -0.317796  -0.000000  -0.000000   10.0000     2.0920
   -4.400     0.000   0.696810   0.013216   0.008586   0.021801   0.000000  -0.000000  -0.318837   0.000000  -0.000000   10.0000     2.0774
   -4.300     0.000   0.703378   0.013478   0.008622   0.022100   0.000000  -0.000000  -0.319764   0.000000  -0.000000   10.0000     2.0634
   -4.200     0.000   0.709763   0.013742   0.008661   0.022402   0.000000  -0.000000  -0.320614   0.000000  -0.000000   10.0000     2.0499
   -4.100     0.000   0.716116   0.014005   0.008701   0.022706   0.000000  -0.000000  -0.321446   0.000000  -0.000000   10.0000     2.0364
   -4.000     0.000   0.722405   0.014267   0.008744   0.023012   0.000000  -0.000000  -0.322248  -0.000000  -0.000000   10.0000     2.0231
   -3.900     0.000   0.728549   0.014525   0.008796   0.023321   0.000000  -0.000000  -0.322979   0.000000   0.000000   10.0000     2.0100
   -3.800     0.000   0.734961   0.014782   0.008848   0.023629   0.000000  -0.000000  -0.323821   0.000000   0.000000   10.0000     1.9971
   -3.700     0.000   0.741458   0.015042   0.008899   0.023941   0.000000  -0.000000  -0.324705   0.000000   0.000000   10.0000     1.9846
   -3.600     0.000   0.748008   0.015306   0.008950   0.024257   0.000000  -0.000000  -0.325615   0.000000   0.000000   10.0000     1.9723
   -3.500     0.000   0.754617   0.015575   0.009001   0.024576   0.000000  -0.000000  -0.326553   0.000000   0.000000   10.0000     1.9601
   -3.400     0.000   0.761302   0.015846   0.009051   0.024897   0.000000  -0.000000  -0.327523   0.000000   0.000000   10.0000     1.9479
   -3.300     0.000   0.767957   0.016126   0.009097   0.025223   0.000000  -0.000000  -0.328491   0.000000   0.000000   10.0000     1.9361
   -3.200     0.000   0.774413   0.016406   0.009148   0.025554   0.000000  -0.000000  -0.329378   0.000000   0.000000   10.0000     1.9246
   -3.100     0.000   0.780794   0.016687   0.009202   0.025889   0.000000  -0.000000  -0.330235   0.000000   0.000000   10.0000     1.9135
   -3.000     0.000   0.787144   0.016968   0.009258   0.026226   0.000000  -0.000000  -0.331077   0.000000   0.000000   10.0000     1.9024
   -2.900     0.000   0.793406   0.017249   0.009316   0.026565   0.000000  -0.000000  -0.331881  -0.000000  -0.000000   10.0000     1.8914
   -2.800     0.000   0.799642   0.017532   0.009375   0.026906   0.000000  -0.000000  -0.332674   0.000000   0.000000   10.0000     1.8804
   -2.700     0.000   0.805823   0.017815   0.009436   0.027250   0.000000  -0.000000  -0.333447   0.000000   0.000000   10.0000     1.8697
   -2.600     0.000   0.811940   0.018101   0.009498   0.027599   0.000000  -0.000000  -0.334199   0.000000   0.000000   10.0000     1.8592
   -2.500     0.000   0.818051   0.018386   0.009561   0.027947   0.000000  -0.000000  -0.334948   0.000000   0.000000   10.0000     1.8490
   -2.400     0.000   0.824159   0.018674   0.009624   0.028298   0.000000  -0.000000  -0.335695   0.000000  -0.000000   10.0000     1.8389
   -2.300     0.000   0.830260   0.018964   0.009687   0.028651   0.000000  -0.000000  -0.336441   0.000000   0.000000   10.0000     1.8289
   -2.200     0.000   0.836441   0.019258   0.009751   0.029008   0.000000  -0.000000  -0.337227   0.000000  -0.000000   10.0000     1.8192
   -2.100     0.000   0.842655   0.019555   0.009814   0.029369   0.000000  -0.000000  -0.338032   0.000000  -0.000000   10.0000     1.8095
   -2.000     0.000   0.848868   0.019853   0.009878   0.029732   0.000000  -0.000000  -0.338840   0.000000  -0.000000   10.0000     1.8001
   -1.900     0.000   0.855004   0.020149   0.009945   0.030094   0.000000  -0.000000  -0.339612   0.000000  -0.000000   10.0000     1.7907
   -1.800     0.000   0.861162   0.020446   0.010013   0.030459   0.000000  -0.000000  -0.340395   0.000000   0.000000   10.0000     1.7815
   -1.700     0.000   0.866986   0.020738   0.010096   0.030833   0.000000  -0.000000  -0.341048   0.000000  -0.000000   10.0000     1.7724
   -1.600     0.000   0.872535   0.021024   0.010190   0.031214   0.000000  -0.000000  -0.341593   0.000000   0.000000   10.0000     1.7635
   -1.500     0.000   0.877917   0.021305   0.010293   0.031599   0.000000  -0.000000  -0.342072   0.000000  -0.000000   10.0000     1.7547
   -1.400     0.000   0.883278   0.021587   0.010398   0.031985   0.000000  -0.000000  -0.342543   0.000000   0.000000   10.0000     1.7460
   -1.300     0.000   0.888550   0.021866   0.010508   0.032375   0.000000  -0.000000  -0.342982   0.000000   0.000000   10.0000     1.7375
   -1.200     0.000   0.893749   0.022150   0.010622   0.032772   0.000000  -0.000000  -0.343398   0.000000  -0.000000   10.0000     1.7291
   -1.100     0.000   0.898952   0.022434   0.010736   0.033169   0.000000  -0.000000  -0.343815   0.000000   0.000000   10.0000     1.7206
   -1.000     0.000   0.904156   0.022719   0.010850   0.033569   0.000000  -0.000000  -0.344232  -0.000000  -0.000000   10.0000     1.7122
   -0.900     0.000   0.909251   0.023000   0.010969   0.033969   0.000000  -0.000000  -0.344605  -0.000000  -0.000000   10.0000     1.7038
   -0.800     0.000   0.914308   0.023281   0.011091   0.034372   0.000000  -0.000000  -0.344964  -0.000000  -0.000000   10.0000     1.6954
   -0.700     0.000   0.919458   0.023566   0.011217   0.034783   0.000000  -0.000000  -0.345375   0.000000   0.000000   10.0000     1.6873
   -0.600     0.000   0.924720   0.023852   0.011353   0.035204   0.000000  -0.000000  -0.345851   0.000000  -0.000000   10.0000     1.6795
   -0.500     0.000   0.930041   0.024141   0.011492   0.035633   0.000000  -0.000000  -0.346362   0.000000   0.000000   10.0000     1.6719
   -0.400     0.000   0.935404   0.024433   0.011634   0.036067   0.000000  -0.000000  -0.346897  -0.000000  -0.000000   10.0000     1.6644
   -0.300     0.000   0.940789   0.024729   0.011777   0.036506   0.000000  -0.000000  -0.347447   0.000000   0.000000   10.0000     1.6570
   -0.200     0.000   0.946204   0.025023   0.011925   0.036948   0.000000  -0.000000  -0.348015   0.000000  -0.000000   10.0000     1.6497
   -0.100     0.000   0.951521   0.025315   0.012079   0.037394   0.000000  -0.000000  -0.348546   0.000000   0.000000   10.0000     1.6425
    0.000     0.000   0.956833   0.025608   0.012232   0.037841   0.000000  -0.000000  -0.349076   0.000000  -0.000000   10.0000     1.6353
    0.100     0.000   0.962156   0.025904   0.012388   0.038292   0.000000  -0.000000  -0.349615   0.000000   0.000000   10.0000     1.6281
    0.200     0.000   0.967526   0.026203   0.012546   0.038749   0.000000  -0.000000  -0.350180  -0.000000  -0.000000   10.0000     1.6211
    0.300     0.000   0.972875   0.026502   0.012706   0.039208   0.000000  -0.000000  -0.350738   0.000000   0.000000   10.0000     1.6141
    0.400     0.000   0.978090   0.026800   0.012881   0.039680   0.000000  -0.000000  -0.351257   0.000000   0.000000   10.0000     1.6073
    0.500     0.000   0.983246   0.027097   0.013062   0.040159   0.000000  -0.000000  -0.351761   0.000000   0.000000   10.0000     1.6005
    0.600     0.000   0.988339   0.027394   0.013252   0.040645   0.000000  -0.000000  -0.352246   0.000000  -0.000000   10.0000     1.5938
    0.700     0.000   0.993432   0.027692   0.013442   0.041134   0.000000  -0.000000  -0.352735   0.000000   0.000000   10.0000     1.5872
    0.800     0.000   0.998499   0.027992   0.013636   0.041628   0.000000  -0.000000  -0.353218   0.000000  -0.000000   10.0000     1.5807
    0.900     0.000   1.003756   0.028299   0.013829   0.042128   0.000000  -0.000000  -0.353789   0.000000  -0.000000   10.0000     1.5743
    1.000     0.000   1.009165   0.028616   0.014017   0.042633   0.000000  -0.000000  -0.354430   0.000000   0.000000   10.0000     1.5682
    1.100     0.000   1.014663   0.028932   0.014203   0.043135   0.000000  -0.000000  -0.355099   0.000000   0.000000   10.0000     1.5620
    1.200     0.000   1.020173   0.029252   0.014388   0.043640   0.000000  -0.000000  -0.355778   0.000000   0.000000   10.0000     1.5560
    1.300     0.000   1.025653   0.029578   0.014577   0.044155   0.000000  -0.000000  -0.356456   0.000000   0.000000   10.0000     1.5500
    1.400     0.000   1.031194   0.029888   0.014766   0.044655   0.000000  -0.000000  -0.357143   0.000000   0.000000   10.0000     1.5441
    1.500     0.000   1.036750   0.030206   0.014954   0.045160   0.000000  -0.000000  -0.357842   0.000000   0.000000   10.0000     1.5382
    1.600     0.000   1.042315   0.030527   0.015141   0.045668   0.000000  -0.000000  -0.358546   0.000000   0.000000   10.0000     1.5325
    1.700     0.000   1.047895   0.030851   0.015327   0.046177   0.000000  -0.000000  -0.359258   0.000000   0.000000   10.0000     1.5267
    1.800     0.000   1.053567   0.031182   0.015509   0.046691   0.000000  -0.000000  -0.360010   0.000000   0.000000   10.0000     1.5211
    1.900     0.000   1.059241   0.031519   0.015690   0.047209   0.000000  -0.000000  -0.360768  -0.000000  -0.000000   10.0000     1.5155
    2.000     0.000   1.064807   0.031854   0.015878   0.047731   0.000000  -0.000000  -0.361487   0.000000   0.000000   10.0000     1.5100
    2.100     0.000   1.070310   0.032187   0.016070   0.048257   0.000000  -0.000000  -0.362184   0.000000  -0.000000   10.0000     1.5046
    2.200     0.000   1.075758   0.032519   0.016265   0.048784   0.000000  -0.000000  -0.362861   0.000000   0.000000   10.0000     1.4992
    2.300     0.000   1.081215   0.032853   0.016460   0.049313   0.000000  -0.000000  -0.363542   0.000000   0.000000   10.0000     1.4938
    2.400     0.000   1.086677   0.033189   0.016654   0.049843   0.000000  -0.000000  -0.364225   0.000000  -0.000000   10.0000     1.4884
    2.500     0.000   1.092298   0.033533   0.016841   0.050374   0.000000  -0.000000  -0.364974  -0.000000  -0.000000   10.0000     1.4832
    2.600     0.000   1.098058   0.033892   0.017021   0.050913   0.000000  -0.000000  -0.365787  -0.000000  -0.000000   10.0000     1.4781
    2.700     0.000   1.103912   0.034250   0.017198   0.051447   0.000000  -0.000000  -0.366630  -0.000000  -0.000000   10.0000     1.4731
    2.800     0.000   1.109767   0.034611   0.017373   0.051984   0.000000  -0.000000  -0.367474  -0.000000  -0.000000   10.0000     1.4681
    2.900     0.000   1.115597   0.034973   0.017549   0.052522   0.000000  -0.000000  -0.368308  -0.000000  -0.000000   10.0000     1.4631
    3.000     0.000   1.121480   0.035340   0.017722   0.053062   0.000000  -0.000000  -0.369166  -0.000000  -0.000000   10.0000     1.4583
    3.100     0.000   1.127341   0.035712   0.017897   0.053608   0.000000  -0.000000  -0.370022  -0.000000  -0.000000   10.0000     1.4534
    3.200     0.000   1.133217   0.036076   0.018074   0.054150   0.000000  -0.000000  -0.370870   0.000000   0.000000   10.0000     1.4486
    3.300     0.000   1.139080   0.036444   0.018252   0.054695   0.000000  -0.000000  -0.371715   0.000000   0.000000   10.0000     1.4439
    3.400     0.000   1.144975   0.036816   0.018427   0.055243   0.000000  -0.000000  -0.372573   0.000000   0.000000   10.0000     1.4391
    3.500     0.000   1.150874   0.037191   0.018602   0.055792   0.000000  -0.000000  -0.373434   0.000000   0.000000   10.0000     1.4344
    3.600     0.000   1.156728   0.037566   0.018777   0.056343   0.000000  -0.000000  -0.374278   0.000000   0.000000   10.0000     1.4298
    3.700     0.000   1.162540   0.037939   0.018956   0.056895   0.000000  -0.000000  -0.375108   0.000000   0.000000   10.0000     1.4252
    3.800     0.000   1.168294   0.038310   0.019138   0.057448   0.000000  -0.000000  -0.375915   0.000000   0.000000   10.0000     1.4206
    3.900     0.000   1.174050   0.038682   0.019320   0.058002   0.000000  -0.000000  -0.376722   0.000000   0.000000   10.0000     1.4161
    4.000     0.000   1.179840   0.039056   0.019501   0.058557   0.000000  -0.000000  -0.377544   0.000000   0.000000   10.0000     1.4115
    4.100     0.000   1.185759   0.039432   0.019677   0.059109   0.000000  -0.000000  -0.378413   0.000000   0.000000   10.0000     1.4071
    4.200     0.000   1.191723   0.039822   0.019847   0.059669   0.000000  -0.000000  -0.379314   0.000000   0.000000   10.0000     1.4028
    4.300     0.000   1.197843   0.040226   0.020010   0.060235   0.000000  -0.000000  -0.380278   0.000000   0.000000   10.0000     1.3986
    4.400     0.000   1.204008   0.040635   0.020170   0.060805   0.000000   0.000000  -0.381262  -0.000000  -0.000000   10.0000     1.3944
    4.500     0.000   1.210163   0.041047   0.020330   0.061377   0.000000  -0.000000  -0.382242   0.000000   0.000000   10.0000     1.3903
    4.600     0.000   1.216324   0.041461   0.020490   0.061951   0.000000  -0.000000  -0.383226   0.000000  -0.000000   10.0000     1.3862
    4.700     0.000   1.222455   0.041877   0.020651   0.062527   0.000000   0.000000  -0.384200   0.000000   0.000000   10.0000     1.3822
    4.800     0.000   1.228575   0.042294   0.020812   0.063106   0.000000   0.000000  -0.385170   0.000000   0.000000   10.0000     1.3781
    4.900     0.000   1.234680   0.042713   0.020974   0.063687   0.000000  -0.000000  -0.386136   0.000000  -0.000000   10.0000     1.3741
    5.000     0.000   1.240772   0.043138   0.021135   0.064273   0.000000  -0.000000  -0.387101  -0.000000  -0.000000   10.0000     1.3702
    5.100     0.000   1.246886   0.043563   0.021297   0.064860   0.000000  -0.000000  -0.388074   0.000000   0.000000   10.0000     1.3663
    5.200     0.000   1.253020   0.043981   0.021462   0.065443   0.000000  -0.000000  -0.389051   0.000000   0.000000   10.0000     1.3624
    5.300     0.000   1.259150   0.044403   0.021627   0.066030   0.000000  -0.000000  -0.390028   0.000000   0.000000   10.0000     1.3585
    5.400     0.000   1.265288   0.044828   0.021793   0.066621   0.000000  -0.000000  -0.391012   0.000000   0.000000   10.0000     1.3547
    5.500     0.000   1.271399   0.045252   0.021960   0.067212   0.000000  -0.000000  -0.391983   0.000000   0.000000   10.0000     1.3509
    5.600     0.000   1.277500   0.045677   0.022127   0.067804   0.000000  -0.000000  -0.392952   0.000000   0.000000   10.0000     1.3471
    5.700     0.000   1.283598   0.046103   0.022296   0.068399   0.000000  -0.000000  -0.393923   0.000000   0.000000   10.0000     1.3434
    5.800     0.000   1.289700   0.046531   0.022465   0.068996   0.000000  -0.000000  -0.394897   0.000000   0.000000   10.0000     1.3398
    5.900     0.000   1.295805   0.046961   0.022634   0.069595   0.000000  -0.000000  -0.395872   0.000000   0.000000   10.0000     1.3361
    6.000     0.000   1.301927   0.047395   0.022802   0.070197   0.000000  -0.000000  -0.396854   0.000000   0.000000   10.0000     1.3325
    6.100     0.000   1.308095   0.047836   0.022968   0.070804   0.000000  -0.000000  -0.397855   0.000000   0.000000   10.0000     1.3289
    6.200     0.000   1.314270   0.048282   0.023133   0.071415   0.000000  -0.000000  -0.398863   0.000000  -0.000000   10.0000     1.3253
    6.300     0.000   1.320425   0.048734   0.023298   0.072032   0.000000  -0.000000  -0.399870   0.000000   0.000000   10.0000     1.3219
    6.400     0.000   1.326615   0.049184   0.023465   0.072649   0.000000  -0.000000  -0.400889   0.000000   0.000000   10.0000     1.3184
    6.500     0.000   1.332797   0.049640   0.023633   0.073272   0.000000  -0.000000  -0.401910   0.000000  -0.000000   10.0000     1.3150
    6.600     0.000   1.338970   0.050097   0.023800   0.073898   0.000000  -0.000000  -0.402928   0.000000  -0.000000   10.0000     1.3116
    6.700     0.000   1.345144   0.050557   0.023969   0.074525   0.000000  -0.000000  -0.403949   0.000000  -0.000000   10.0000     1.3082
    6.800     0.000   1.351322   0.051018   0.024138   0.075156   0.000000  -0.000000  -0.404975   0.000000   0.000000   10.0000     1.3049
    6.900     0.000   1.357501   0.051481   0.024308   0.075789   0.000000  -0.000000  -0.406002   0.000000   0.000000   10.0000     1.3016
    7.000     0.000   1.363689   0.051947   0.024478   0.076424   0.000000  -0.000000  -0.407034   0.000000   0.000000   10.0000     1.2984
    7.100     0.000   1.369877   0.052415   0.024647   0.077062   0.000000  -0.000000  -0.408065   0.000000   0.000000   10.0000     1.2951
    7.200     0.000   1.376063   0.052885   0.024819   0.077704   0.000000  -0.000000  -0.409099   0.000000   0.000000   10.0000     1.2919
    7.300     0.000   1.382248   0.053357   0.024992   0.078349   0.000000  -0.000000  -0.410137   0.000000   0.000000   10.0000     1.2887
    7.400     0.000   1.388421   0.053830   0.025167   0.078996   0.000000  -0.000000  -0.411171   0.000000  -0.000000   10.0000     1.2855
    7.500     0.000   1.394589   0.054304   0.025342   0.079646   0.000000  -0.000000  -0.412204  -0.000000  -0.000000   10.0000     1.2824
    7.600     0.000   1.400756   0.054780   0.025517   0.080298   0.000000  -0.000000  -0.413237   0.000000   0.000000   10.0000     1.2793
    7.700     0.000   1.406925   0.055259   0.025694   0.080952   0.000000  -0.000000  -0.414273   0.000000   0.000000   10.0000     1.2762
    7.800     0.000   1.413088   0.055737   0.025873   0.081610   0.000000  -0.000000  -0.415309   0.000000   0.000000   10.0000     1.2731
    7.900     0.000   1.419252   0.056217   0.026054   0.082271   0.000000  -0.000000  -0.416350   0.000000   0.000000   10.0000     1.2701
    8.000     0.000   1.425423   0.056706   0.026234   0.082940   0.000000   0.000000  -0.417399   0.000000   0.000000   10.0000     1.2671
    8.100     0.000   1.431619   0.057196   0.026414   0.083610   0.000000  -0.000000  -0.418457   0.000000   0.000000   10.0000     1.2641
    8.200     0.000   1.437812   0.057687   0.026595   0.084282   0.000000  -0.000000  -0.419514   0.000000   0.000000   10.0000     1.2612
    8.300     0.000   1.443963   0.058179   0.026779   0.084958   0.000000  -0.000000  -0.420559   0.000000   0.000000   10.0000     1.2582
    8.400     0.000   1.450116   0.058663   0.026967   0.085630   0.000000  -0.000000  -0.421605  -0.000000  -0.000000   10.0000     1.2553
    8.500     0.000   1.456248   0.059164   0.027154   0.086318   0.000000  -0.000000  -0.422654   0.000000   0.000000   10.0000     1.2524
    8.600     0.000   1.462359   0.059665   0.027343   0.087007   0.000000  -0.000000  -0.423698  -0.000000  -0.000000   10.0000     1.2496
    8.700     0.000   1.468457   0.060165   0.027532   0.087697   0.000000  -0.000000  -0.424736  -0.000000  -0.000000   10.0000     1.2467
    8.800     0.000   1.474467   0.060663   0.027730   0.088393   0.000000  -0.000000  -0.425747   0.000000   0.000000   10.0000     1.2439
    8.900     0.000   1.480406   0.061160   0.027934   0.089094   0.000000  -0.000000  -0.426736   0.000000  -0.000000   10.0000     1.2411
    9.000     0.000   1.486305   0.061657   0.028142   0.089798   0.000000  -0.000000  -0.427713  -0.000000  -0.000000   10.0000     1.2383
    9.100     0.000   1.492172   0.062153   0.028353   0.090506   0.000000  -0.000000  -0.428682   0.000000   0.000000   10.0000     1.2355
    9.200     0.000   1.498014   0.062651   0.028566   0.091217   0.000000  -0.000000  -0.429643   0.000000  -0.000000   10.0000     1.2327
    9.300     0.000   1.503786   0.063148   0.028787   0.091935   0.000000  -0.000000  -0.430586   0.000000  -0.000000   10.0000     1.2300
    9.400     0.000   1.509482   0.063643   0.029015   0.092658   0.000000  -0.000000  -0.431506   0.000000   0.000000   10.0000     1.2272
    9.500     0.000   1.515082   0.064135   0.029252   0.093387   0.000000  -0.000000  -0.432398  -0.000000  -0.000000   10.0000     1.2245
    9.600     0.000   1.520637   0.064625   0.029494   0.094119   0.000000   0.000000  -0.433277  -0.000000  -0.000000   10.0000     1.2218
    9.700     0.000   1.526138   0.065113   0.029742   0.094855   0.000000  -0.000000  -0.434140  -0.000000  -0.000000   10.0000     1.2190
    9.800     0.000   1.531628   0.065602   0.029990   0.095592   0.000000  -0.000000  -0.435002   0.000000   0.000000   10.0000     1.2163
    9.900     0.000   1.537079   0.066095   0.030242   0.096336   0.000000  -0.000000  -0.435856  -0.000000  -0.000000   10.0000     1.2136
   10.000     0.000   1.542505   0.066578   0.030499   0.097077   0.000000  -0.000000  -0.436701   0.000000   0.000000   10.0000     1.2110
   10.100     0.000   1.547865   0.067066   0.030760   0.097827   0.000000  -0.000000  -0.437530   0.000000   0.000000   10.0000     1.2083
   10.200     0.000   1.553185   0.067550   0.031027   0.098577   0.000000  -0.000000  -0.438349   0.000000   0.000000   10.0000     1.2057
   10.300     0.000   1.558495   0.068034   0.031296   0.099330   0.000000  -0.000000  -0.439165  -0.000000  -0.000000   10.0000     1.2030
   10.400     0.000   1.563759   0.068517   0.031569   0.100086   0.000000  -0.000000  -0.439969  -0.000000  -0.000000   10.0000     1.2004
   10.500     0.000   1.568983   0.068999   0.031848   0.100846   0.000000  -0.000000  -0.440763   0.000000  -0.000000   10.0000     1.1978
   10.600     0.000   1.574211   0.069479   0.032127   0.101607   0.000000  -0.000000  -0.441560  -0.000000  -0.000000   10.0000     1.1952
   10.700     0.000   1.579373   0.069962   0.032413   0.102374   0.000000  -0.000000  -0.442341  -0.000000  -0.000000   10.0000     1.1926
   10.800     0.000   1.584476   0.070442   0.032704   0.103145   0.000000  -0.000000  -0.443106   0.000000   0.000000   10.0000     1.1900
   10.900     0.000   1.589392   0.070915   0.033013   0.103928   0.000000  -0.000000  -0.443819  -0.000000  -0.000000   10.0000     1.1875
   11.000     0.000   1.594196   0.071385   0.033333   0.104718   0.000000  -0.000000  -0.444500  -0.000000  -0.000000   10.0000     1.1849
   11.100     0.000   1.598941   0.071851   0.033660   0.105511   0.000000  -0.000000  -0.445166   0.000000   0.000000   10.0000     1.1824
   11.200     0.000   1.603616   0.072315   0.033993   0.106308   0.000000   0.000000  -0.445812  -0.000000  -0.000000   10.0000     1.1798
   11.300     0.000   1.608222   0.072776   0.034335   0.107110   0.000000  -0.000000  -0.446441   0.000000  -0.000000   10.0000     1.1773
   11.400     0.000   1.612787   0.073233   0.034680   0.107913   0.000000  -0.000000  -0.447058   0.000000  -0.000000   10.0000     1.1748
   11.500     0.000   1.617340   0.073690   0.035027   0.108717   0.000000  -0.000000  -0.447670   0.000000   0.000000   10.0000     1.1722
   11.600     0.000   1.621834   0.074145   0.035380   0.109525   0.000000  -0.000000  -0.448266   0.000000   0.000000   10.0000     1.1697
   11.700     0.000   1.626257   0.074600   0.035738   0.110339   0.000000  -0.000000  -0.448844   0.000000   0.000000   10.0000     1.1672
   11.800     0.000   1.630670   0.075047   0.036101   0.111148   0.000000  -0.000000  -0.449415   0.000000   0.000000   10.0000     1.1646
   11.900     0.000   1.635025   0.075495   0.036471   0.111965   0.000000  -0.000000  -0.449978   0.000000   0.000000   10.0000     1.1621
   12.000     0.000   1.639311   0.075937   0.036850   0.112787   0.000000  -0.000000  -0.450525  -0.000000  -0.000000   10.0000     1.1597
   12.100     0.000   1.643565   0.076383   0.037231   0.113614   0.000000  -0.000000  -0.451067   0.000000   0.000000   10.0000     1.1572
   12.200     0.000   1.647809   0.076825   0.037615   0.114440   0.000000  -0.000000  -0.451605   0.000000   0.000000   10.0000     1.1547
   12.300     0.000   1.652001   0.077263   0.038006   0.115270   0.000000  -0.000000  -0.452132   0.000000   0.000000   10.0000     1.1523
   12.400     0.000   1.656004   0.077692   0.038416   0.116108   0.000000  -0.000000  -0.452608   0.000000   0.000000   10.0000     1.1498
   12.500     0.000   1.659921   0.078115   0.038836   0.116951   0.000000  -0.000000  -0.453061   0.000000   0.000000   10.0000     1.1474
   12.600     0.000   1.663762   0.078535   0.039264   0.117799   0.000000  -0.000000  -0.453497   0.000000   0.000000   10.0000     1.1449
   12.700     0.000   1.667572   0.078954   0.039697   0.118650   0.000000  -0.000000  -0.453927   0.000000  -0.000000   10.0000     1.1425
   12.800     0.000   1.671293   0.079368   0.040139   0.119507   0.000000  -0.000000  -0.454335   0.000000   0.000000   10.0000     1.1401
   12.900     0.000   1.674902   0.079775   0.040596   0.120371   0.000000  -0.000000  -0.454715   0.000000   0.000000   10.0000     1.1377
   13.000     0.000   1.678419   0.080187   0.041064   0.121250   0.000000  -0.000000  -0.455079  -0.000000  -0.000000   10.0000     1.1353
   13.100     0.000   1.681872   0.080595   0.041541   0.122136   0.000000  -0.000000  -0.455431  -0.000000  -0.000000   10.0000     1.1329
   13.200     0.000   1.685227   0.080996   0.042028   0.123024   0.000000  -0.000000  -0.455757  -0.000000  -0.000000   10.0000     1.1306
   13.300     0.000   1.688481   0.081391   0.042529   0.123920   0.000000  -0.000000  -0.456060  -0.000000  -0.000000   10.0000     1.1282
   13.400     0.000   1.691742   0.081785   0.043034   0.124818   0.000000  -0.000000  -0.456376   0.000000  -0.000000   10.0000     1.1259
   13.500     0.000   1.695027   0.082180   0.043539   0.125719   0.000000  -0.000000  -0.456705   0.000000   0.000000   10.0000     1.1236
   13.600     0.000   1.698333   0.082576   0.044045   0.126621   0.000000  -0.000000  -0.457045   0.000000  -0.000000   10.0000     1.1213
   13.700     0.000   1.701539   0.082966   0.044562   0.127528   0.000000  -0.000000  -0.457362   0.000000  -0.000000   10.0000     1.1190
   13.800     0.000   1.704710   0.083349   0.045087   0.128436   0.000000  -0.000000  -0.457675   0.000000   0.000000   10.0000     1.1167
   13.900     0.000   1.707565   0.083717   0.045649   0.129366   0.000000  -0.000000  -0.457907   0.000000   0.000000   10.0000     1.1144
   14.000     0.000   1.710113   0.084069   0.046246   0.130315   0.000000  -0.000000  -0.458061   0.000000   0.000000   10.0000     1.1122
   14.100     0.000   1.712412   0.084405   0.046874   0.131278   0.000000  -0.000000  -0.458150   0.000000   0.000000   10.0000     1.1099
   14.200     0.000   1.714734   0.084741   0.047502   0.132243   0.000000  -0.000000  -0.458251   0.000000   0.000000   10.0000     1.1077