xflr5 v6.61

Plane name :        AeroSail 30m 16deg flap UPDATED
Polar name :        T1-10.0 m/s-LLT
Freestream speed :  10.000 m/s


   alpha      Beta       CL          CDi        CDv        CD         CY         Cl         Cm         Cn        Cni       QInf        XCP
  -10.000     0.000   0.173201   0.000776   0.007077   0.007854   0.000000  -0.000000  -0.197864   0.000000   0.000000   10.0000     5.4701
   -9.900     0.000   0.182907   0.000867   0.007043   0.007909   0.000000  -0.000000  -0.200320   0.000000  -0.000000   10.0000     5.2101
   -9.800     0.000   0.192615   0.000962   0.007008   0.007970   0.000000  -0.000000  -0.202776   0.000000   0.000000   10.0000     4.9728
   -9.700     0.000   0.202329   0.001062   0.006971   0.008034   0.000000  -0.000000  -0.205229   0.000000   0.000000   10.0000     4.7895
   -9.600     0.000   0.212044   0.001168   0.006934   0.008102   0.000000  -0.000000  -0.207682   0.000000   0.000000   10.0000     4.6225
   -9.500     0.000   0.221759   0.001278   0.006897   0.008175   0.000000  -0.000000  -0.210135   0.000000  -0.000000   10.0000     4.4608
   -9.400     0.000   0.231476   0.001394   0.006859   0.008253   0.000000  -0.000000  -0.212587   0.000000   0.000000   10.0000     4.3090
   -9.300     0.000   0.241193   0.001514   0.006821   0.008336   0.000000  -0.000000  -0.215040   0.000000   0.000000   10.0000     4.1622
   -9.200     0.000   0.250893   0.001639   0.006780   0.008420   0.000000  -0.000000  -0.217483   0.000000  -0.000000   10.0000     4.0406
   -9.100     0.000   0.260581   0.001770   0.006736   0.008506   0.000000  -0.000000  -0.219919   0.000000   0.000000   10.0000     3.9375
   -9.000     0.000   0.270265   0.001905   0.006691   0.008596   0.000000  -0.000000  -0.222353   0.000000   0.000000   10.0000     3.8398
   -8.900     0.000   0.279948   0.002045   0.006646   0.008691   0.000000  -0.000000  -0.224786   0.000000   0.000000   10.0000     3.7439
   -8.800     0.000   0.289628   0.002190   0.006601   0.008790   0.000000  -0.000000  -0.227217   0.000000  -0.000000   10.0000     3.6507
   -8.700     0.000   0.299313   0.002339   0.006556   0.008896   0.000000  -0.000000  -0.229650   0.000000  -0.000000   10.0000     3.5622
   -8.600     0.000   0.309018   0.002494   0.006516   0.009011   0.000000  -0.000000  -0.232090   0.000000   0.000000   10.0000     3.4846
   -8.500     0.000   0.318730   0.002655   0.006478   0.009133   0.000000  -0.000000  -0.234532   0.000000   0.000000   10.0000     3.4119
   -8.400     0.000   0.328444   0.002820   0.006441   0.009260   0.000000  -0.000000  -0.236974   0.000000  -0.000000   10.0000     3.3449
   -8.300     0.000   0.338159   0.002990   0.006403   0.009393   0.000000  -0.000000  -0.239416   0.000000   0.000000   10.0000     3.2791
   -8.200     0.000   0.347875   0.003165   0.006366   0.009531   0.000000  -0.000000  -0.241859   0.000000   0.000000   10.0000     3.2140
   -8.100     0.000   0.357466   0.003344   0.006340   0.009684   0.000000  -0.000000  -0.244245   0.000000   0.000000   10.0000     3.1566
   -8.000     0.000   0.366975   0.003527   0.006320   0.009846   0.000000  -0.000000  -0.246594   0.000000  -0.000000   10.0000     3.1033
   -7.900     0.000   0.376450   0.003713   0.006303   0.010016   0.000000  -0.000000  -0.248926   0.000000   0.000000   10.0000     3.0518
   -7.800     0.000   0.385903   0.003904   0.006288   0.010192   0.000000  -0.000000  -0.251248   0.000000   0.000000   10.0000     3.0014
   -7.700     0.000   0.395345   0.004100   0.006274   0.010374   0.000000  -0.000000  -0.253565   0.000000   0.000000   10.0000     2.9529
   -7.600     0.000   0.404073   0.004293   0.006294   0.010587   0.000000  -0.000000  -0.255567   0.000000   0.000000   10.0000     2.9083
   -7.500     0.000   0.411158   0.004468   0.006396   0.010864   0.000000  -0.000000  -0.256823   0.000000   0.000000   10.0000     2.8719
   -7.400     0.000   0.417705   0.004634   0.006527   0.011161   0.000000  -0.000000  -0.257826   0.000000   0.000000   10.0000     2.8374
   -7.300     0.000   0.423858   0.004795   0.006678   0.011473   0.000000  -0.000000  -0.258649   0.000000  -0.000000   10.0000     2.8043
   -7.200     0.000   0.429898   0.004952   0.006838   0.011790   0.000000   0.000000  -0.259405   0.000000  -0.000000   10.0000     2.7714
   -7.100     0.000   0.435888   0.005107   0.007000   0.012107   0.000000  -0.000000  -0.260134   0.000000   0.000000   10.0000     2.7394
   -7.000     0.000   0.442872   0.005277   0.007106   0.012384   0.000000  -0.000000  -0.261305   0.000000  -0.000000   10.0000     2.7075
   -6.900     0.000   0.450198   0.005457   0.007193   0.012651   0.000000  -0.000000  -0.262633   0.000000   0.000000   10.0000     2.6762
   -6.800     0.000   0.457504   0.005633   0.007283   0.012916   0.000000  -0.000000  -0.263936   0.000000   0.000000   10.0000     2.6457
   -6.700     0.000   0.464854   0.005815   0.007367   0.013183   0.000000  -0.000000  -0.265266   0.000000   0.000000   10.0000     2.6156
   -6.600     0.000   0.472375   0.006003   0.007443   0.013446   0.000000  -0.000000  -0.266670   0.000000   0.000000   10.0000     2.5856
   -6.500     0.000   0.480043   0.006198   0.007511   0.013709   0.000000  -0.000000  -0.268143   0.000000   0.000000   10.0000     2.5575
   -6.400     0.000   0.487781   0.006401   0.007573   0.013974   0.000000  -0.000000  -0.269655   0.000000   0.000000   10.0000     2.5304
   -6.300     0.000   0.495835   0.006619   0.007616   0.014235   0.000000  -0.000000  -0.271317   0.000000   0.000000   10.0000     2.5039
   -6.200     0.000   0.503901   0.006842   0.007658   0.014500   0.000000  -0.000000  -0.272987   0.000000  -0.000000   10.0000     2.4776
   -6.100     0.000   0.511767   0.007057   0.007713   0.014770   0.000000  -0.000000  -0.274554   0.000000  -0.000000   10.0000     2.4520
   -6.000     0.000   0.519681   0.007269   0.007767   0.015037   0.000000  -0.000000  -0.276124  -0.000000  -0.000000   10.0000     2.4273
   -5.900     0.000   0.527565   0.007487   0.007819   0.015305   0.000000  -0.000000  -0.277684   0.000000   0.000000   10.0000     2.4039
   -5.800     0.000   0.535441   0.007708   0.007869   0.015576   0.000000  -0.000000  -0.279241   0.000000   0.000000   10.0000     2.3810
   -5.700     0.000   0.543324   0.007935   0.007915   0.015851   0.000000  -0.000000  -0.280808   0.000000   0.000000   10.0000     2.3588
   -5.600     0.000   0.551391   0.008171   0.007952   0.016123   0.000000  -0.000000  -0.282456   0.000000  -0.000000   10.0000     2.3368
   -5.500     0.000   0.559445   0.008415   0.007985   0.016401   0.000000  -0.000000  -0.284108   0.000000  -0.000000   10.0000     2.3156
   -5.400     0.000   0.567488   0.008661   0.008017   0.016679   0.000000  -0.000000  -0.285751   0.000000   0.000000   10.0000     2.2955
   -5.300     0.000   0.575523   0.008911   0.008049   0.016959   0.000000  -0.000000  -0.287389   0.000000   0.000000   10.0000     2.2759
   -5.200     0.000   0.583553   0.009163   0.008080   0.017243   0.000000  -0.000000  -0.289023   0.000000  -0.000000   10.0000     2.2566
   -5.100     0.000   0.591579   0.009419   0.008110   0.017528   0.000000  -0.000000  -0.290655   0.000000   0.000000   10.0000     2.2376
   -5.000     0.000   0.599635   0.009677   0.008139   0.017816   0.000000  -0.000000  -0.292295   0.000000   0.000000   10.0000     2.2188
   -4.900     0.000   0.607609   0.009941   0.008167   0.018109   0.000000   0.000000  -0.293906   0.000000   0.000000   10.0000     2.2011
   -4.800     0.000   0.615555   0.010208   0.008196   0.018404   0.000000  -0.000000  -0.295499   0.000000  -0.000000   10.0000     2.1839
   -4.700     0.000   0.623489   0.010477   0.008225   0.018702   0.000000   0.000000  -0.297085   0.000000  -0.000000   10.0000     2.1669
   -4.600     0.000   0.631322   0.010756   0.008255   0.019011   0.000000  -0.000000  -0.298641   0.000000   0.000000   10.0000     2.1503
   -4.500     0.000   0.639167   0.011014   0.008295   0.019309   0.000000  -0.000000  -0.300154   0.000000   0.000000   10.0000     2.1337
   -4.400     0.000   0.646812   0.011279   0.008334   0.019613   0.000000  -0.000000  -0.301589   0.000000   0.000000   10.0000     2.1175
   -4.300     0.000   0.654144   0.011541   0.008372   0.019913   0.000000  -0.000000  -0.302873   0.000000   0.000000   10.0000     2.1022
   -4.200     0.000   0.661314   0.011800   0.008411   0.020211   0.000000  -0.000000  -0.304078   0.000000   0.000000   10.0000     2.0873
   -4.100     0.000   0.668443   0.012060   0.008449   0.020509   0.000000  -0.000000  -0.305262   0.000000   0.000000   10.0000     2.0725
   -4.000     0.000   0.675532   0.012314   0.008487   0.020802   0.000000  -0.000000  -0.306409   0.000000   0.000000   10.0000     2.0577
   -3.900     0.000   0.682625   0.012584   0.008518   0.021103   0.000000  -0.000000  -0.307583  -0.000000  -0.000000   10.0000     2.0433
   -3.800     0.000   0.689614   0.012854   0.008547   0.021401   0.000000  -0.000000  -0.308707   0.000000   0.000000   10.0000     2.0295
   -3.700     0.000   0.696508   0.013123   0.008575   0.021698   0.000000  -0.000000  -0.309784   0.000000  -0.000000   10.0000     2.0161
   -3.600     0.000   0.703376   0.013396   0.008603   0.021999   0.000000  -0.000000  -0.310853   0.000000  -0.000000   10.0000     2.0027
   -3.500     0.000   0.710254   0.013667   0.008630   0.022297   0.000000  -0.000000  -0.311917   0.000000  -0.000000   10.0000     1.9896
   -3.400     0.000   0.717101   0.013944   0.008656   0.022600   0.000000  -0.000000  -0.312974   0.000000   0.000000   10.0000     1.9765
   -3.300     0.000   0.723997   0.014221   0.008688   0.022909   0.000000  -0.000000  -0.314048   0.000000   0.000000   10.0000     1.9637
   -3.200     0.000   0.730790   0.014497   0.008723   0.023220   0.000000  -0.000000  -0.315076   0.000000   0.000000   10.0000     1.9513
   -3.100     0.000   0.737591   0.014776   0.008758   0.023535   0.000000  -0.000000  -0.316109   0.000000   0.000000   10.0000     1.9392
   -3.000     0.000   0.744400   0.015059   0.008795   0.023854   0.000000  -0.000000  -0.317148  -0.000000  -0.000000   10.0000     1.9272
   -2.900     0.000   0.751213   0.015344   0.008833   0.024177   0.000000  -0.000000  -0.318188   0.000000  -0.000000   10.0000     1.9153
   -2.800     0.000   0.757909   0.015629   0.008874   0.024504   0.000000  -0.000000  -0.319177  -0.000000  -0.000000   10.0000     1.9036
   -2.700     0.000   0.764445   0.015914   0.008921   0.024834   0.000000  -0.000000  -0.320096   0.000000  -0.000000   10.0000     1.8922
   -2.600     0.000   0.770886   0.016197   0.008971   0.025168   0.000000  -0.000000  -0.320974  -0.000000  -0.000000   10.0000     1.8811
   -2.500     0.000   0.777323   0.016482   0.009021   0.025503   0.000000  -0.000000  -0.321849  -0.000000  -0.000000   10.0000     1.8701
   -2.400     0.000   0.783676   0.016767   0.009074   0.025841   0.000000  -0.000000  -0.322687  -0.000000  -0.000000   10.0000     1.8592
   -2.300     0.000   0.790126   0.017056   0.009125   0.026181   0.000000  -0.000000  -0.323569  -0.000000  -0.000000   10.0000     1.8484
   -2.200     0.000   0.796814   0.017355   0.009171   0.026526   0.000000  -0.000000  -0.324568   0.000000   0.000000   10.0000     1.8380
   -2.100     0.000   0.803546   0.017654   0.009216   0.026869   0.000000  -0.000000  -0.325581  -0.000000  -0.000000   10.0000     1.8279
   -2.000     0.000   0.810300   0.017954   0.009262   0.027216   0.000000  -0.000000  -0.326605   0.000000   0.000000   10.0000     1.8179
   -1.900     0.000   0.817161   0.018258   0.009306   0.027565   0.000000  -0.000000  -0.327674   0.000000   0.000000   10.0000     1.8081
   -1.800     0.000   0.824012   0.018570   0.009350   0.027920   0.000000  -0.000000  -0.328750   0.000000   0.000000   10.0000     1.7983
   -1.700     0.000   0.830645   0.018879   0.009400   0.028279   0.000000  -0.000000  -0.329729   0.000000   0.000000   10.0000     1.7887
   -1.600     0.000   0.837215   0.019188   0.009453   0.028641   0.000000  -0.000000  -0.330681   0.000000   0.000000   10.0000     1.7793
   -1.500     0.000   0.843765   0.019495   0.009507   0.029002   0.000000  -0.000000  -0.331622   0.000000  -0.000000   10.0000     1.7700
   -1.400     0.000   0.850252   0.019804   0.009562   0.029366   0.000000  -0.000000  -0.332537   0.000000   0.000000   10.0000     1.7608
   -1.300     0.000   0.856650   0.020112   0.009620   0.029732   0.000000  -0.000000  -0.333414   0.000000   0.000000   10.0000     1.7517
   -1.200     0.000   0.862852   0.020418   0.009684   0.030101   0.000000  -0.000000  -0.334210   0.000000  -0.000000   10.0000     1.7427
   -1.100     0.000   0.868890   0.020721   0.009752   0.030473   0.000000  -0.000000  -0.334939   0.000000   0.000000   10.0000     1.7339
   -1.000     0.000   0.874775   0.021024   0.009824   0.030847   0.000000  -0.000000  -0.335606   0.000000   0.000000   10.0000     1.7251
   -0.900     0.000   0.880665   0.021327   0.009896   0.031223   0.000000  -0.000000  -0.336275   0.000000   0.000000   10.0000     1.7164
   -0.800     0.000   0.886507   0.021631   0.009972   0.031603   0.000000  -0.000000  -0.336926   0.000000  -0.000000   10.0000     1.7079
   -0.700     0.000   0.892392   0.021936   0.010049   0.031986   0.000000   0.000000  -0.337600   0.000000  -0.000000   10.0000     1.6995
   -0.600     0.000   0.898402   0.022247   0.010127   0.032374   0.000000  -0.000000  -0.338334   0.000000   0.000000   10.0000     1.6913
   -0.500     0.000   0.904469   0.022563   0.010205   0.032767   0.000000  -0.000000  -0.339098   0.000000  -0.000000   10.0000     1.6832
   -0.400     0.000   0.910484   0.022877   0.010285   0.033162   0.000000  -0.000000  -0.339840   0.000000  -0.000000   10.0000     1.6752
   -0.300     0.000   0.916478   0.023192   0.010366   0.033558   0.000000  -0.000000  -0.340575   0.000000   0.000000   10.0000     1.6673
   -0.200     0.000   0.922443   0.023505   0.010451   0.033957   0.000000  -0.000000  -0.341300   0.000000  -0.000000   10.0000     1.6595
   -0.100     0.000   0.928319   0.023817   0.010542   0.034360   0.000000  -0.000000  -0.341995   0.000000  -0.000000   10.0000     1.6519
    0.000     0.000   0.934167   0.024130   0.010635   0.034766   0.000000  -0.000000  -0.342682   0.000000  -0.000000   10.0000     1.6444
    0.100     0.000   0.940020   0.024446   0.010731   0.035177   0.000000  -0.000000  -0.343376   0.000000  -0.000000   10.0000     1.6370
    0.200     0.000   0.945901   0.024765   0.010826   0.035591   0.000000  -0.000000  -0.344085   0.000000  -0.000000   10.0000     1.6296
    0.300     0.000   0.951694   0.025079   0.010927   0.036006   0.000000  -0.000000  -0.344758   0.000000  -0.000000   10.0000     1.6222
    0.400     0.000   0.957265   0.025387   0.011042   0.036429   0.000000  -0.000000  -0.345349  -0.000000  -0.000000   10.0000     1.6150
    0.500     0.000   0.962773   0.025702   0.011161   0.036864   0.000000  -0.000000  -0.345928   0.000000   0.000000   10.0000     1.6079
    0.600     0.000   0.968165   0.026012   0.011288   0.037300   0.000000  -0.000000  -0.346459   0.000000  -0.000000   10.0000     1.6009
    0.700     0.000   0.973534   0.026322   0.011416   0.037738   0.000000  -0.000000  -0.346982   0.000000   0.000000   10.0000     1.5939
    0.800     0.000   0.978851   0.026631   0.011549   0.038180   0.000000  -0.000000  -0.347487   0.000000  -0.000000   10.0000     1.5870
    0.900     0.000   0.984249   0.026944   0.011688   0.038633   0.000000  -0.000000  -0.348043   0.000000   0.000000   10.0000     1.5802
    1.000     0.000   0.989689   0.027261   0.011829   0.039091   0.000000  -0.000000  -0.348623   0.000000  -0.000000   10.0000     1.5736
    1.100     0.000   0.995148   0.027584   0.011972   0.039556   0.000000  -0.000000  -0.349220   0.000000  -0.000000   10.0000     1.5671
    1.200     0.000   1.000564   0.027896   0.012120   0.040016   0.000000  -0.000000  -0.349786   0.000000   0.000000   10.0000     1.5605
    1.300     0.000   1.005932   0.028208   0.012274   0.040482   0.000000  -0.000000  -0.350337   0.000000   0.000000   10.0000     1.5541
    1.400     0.000   1.011437   0.028525   0.012426   0.040951   0.000000  -0.000000  -0.350952   0.000000   0.000000   10.0000     1.5478
    1.500     0.000   1.017067   0.028847   0.012576   0.041424   0.000000   0.000000  -0.351625   0.000000   0.000000   10.0000     1.5416
    1.600     0.000   1.022755   0.029174   0.012726   0.041900   0.000000  -0.000000  -0.352323   0.000000   0.000000   10.0000     1.5356
    1.700     0.000   1.028487   0.029504   0.012874   0.042378   0.000000  -0.000000  -0.353042   0.000000   0.000000   10.0000     1.5295
    1.800     0.000   1.034238   0.029836   0.013024   0.042860   0.000000  -0.000000  -0.353773   0.000000   0.000000   10.0000     1.5236
    1.900     0.000   1.040009   0.030166   0.013177   0.043343   0.000000  -0.000000  -0.354514   0.000000   0.000000   10.0000     1.5177
    2.000     0.000   1.045654   0.030496   0.013338   0.043834   0.000000  -0.000000  -0.355212   0.000000   0.000000   10.0000     1.5119
    2.100     0.000   1.051224   0.030824   0.013504   0.044329   0.000000  -0.000000  -0.355884   0.000000   0.000000   10.0000     1.5062
    2.200     0.000   1.056734   0.031155   0.013674   0.044829   0.000000  -0.000000  -0.356539   0.000000   0.000000   10.0000     1.5005
    2.300     0.000   1.062335   0.031488   0.013842   0.045330   0.000000  -0.000000  -0.357232   0.000000   0.000000   10.0000     1.4949
    2.400     0.000   1.067936   0.031826   0.014010   0.045837   0.000000  -0.000000  -0.357932   0.000000   0.000000   10.0000     1.4894
    2.500     0.000   1.073562   0.032172   0.014180   0.046352   0.000000  -0.000000  -0.358654   0.000000   0.000000   10.0000     1.4840
    2.600     0.000   1.079239   0.032520   0.014350   0.046870   0.000000  -0.000000  -0.359399   0.000000   0.000000   10.0000     1.4787
    2.700     0.000   1.084941   0.032871   0.014520   0.047391   0.000000  -0.000000  -0.360156  -0.000000  -0.000000   10.0000     1.4734
    2.800     0.000   1.090643   0.033224   0.014690   0.047913   0.000000  -0.000000  -0.360914   0.000000   0.000000   10.0000     1.4682
    2.900     0.000   1.096317   0.033576   0.014862   0.048439   0.000000  -0.000000  -0.361662   0.000000   0.000000   10.0000     1.4630
    3.000     0.000   1.102114   0.033934   0.015030   0.048964   0.000000  -0.000000  -0.362461  -0.000000  -0.000000   10.0000     1.4579
    3.100     0.000   1.107993   0.034292   0.015196   0.049488   0.000000  -0.000000  -0.363290   0.000000   0.000000   10.0000     1.4530
    3.200     0.000   1.113917   0.034661   0.015359   0.050020   0.000000  -0.000000  -0.364146   0.000000   0.000000   10.0000     1.4481
    3.300     0.000   1.119887   0.035028   0.015522   0.050549   0.000000  -0.000000  -0.365016   0.000000   0.000000   10.0000     1.4432
    3.400     0.000   1.125861   0.035400   0.015683   0.051084   0.000000  -0.000000  -0.365890   0.000000   0.000000   10.0000     1.4384
    3.500     0.000   1.131824   0.035776   0.015845   0.051621   0.000000  -0.000000  -0.366763   0.000000   0.000000   10.0000     1.4336
    3.600     0.000   1.137707   0.036151   0.016010   0.052161   0.000000  -0.000000  -0.367605   0.000000   0.000000   10.0000     1.4289
    3.700     0.000   1.143508   0.036522   0.016180   0.052701   0.000000  -0.000000  -0.368417   0.000000   0.000000   10.0000     1.4241
    3.800     0.000   1.149249   0.036891   0.016353   0.053243   0.000000  -0.000000  -0.369206  -0.000000  -0.000000   10.0000     1.4195
    3.900     0.000   1.155004   0.037268   0.016524   0.053793   0.000000  -0.000000  -0.370008   0.000000   0.000000   10.0000     1.4149
    4.000     0.000   1.160847   0.037645   0.016694   0.054339   0.000000  -0.000000  -0.370841  -0.000000  -0.000000   10.0000     1.4103
    4.100     0.000   1.166747   0.038026   0.016862   0.054888   0.000000  -0.000000  -0.371701   0.000000   0.000000   10.0000     1.4058
    4.200     0.000   1.172677   0.038412   0.017028   0.055440   0.000000  -0.000000  -0.372574  -0.000000  -0.000000   10.0000     1.4014
    4.300     0.000   1.178681   0.038809   0.017192   0.056001   0.000000  -0.000000  -0.373487  -0.000000  -0.000000   10.0000     1.3971
    4.400     0.000   1.184713   0.039203   0.017356   0.056560   0.000000  -0.000000  -0.374406  -0.000000  -0.000000   10.0000     1.3928
    4.500     0.000   1.190706   0.039604   0.017521   0.057125   0.000000  -0.000000  -0.375315  -0.000000  -0.000000   10.0000     1.3885
    4.600     0.000   1.196736   0.040005   0.017684   0.057689   0.000000  -0.000000  -0.376239  -0.000000  -0.000000   10.0000     1.3843
    4.700     0.000   1.202775   0.040403   0.017847   0.058251   0.000000  -0.000000  -0.377161   0.000000   0.000000   10.0000     1.3802
    4.800     0.000   1.208812   0.040806   0.018010   0.058816   0.000000  -0.000000  -0.378085   0.000000   0.000000   10.0000     1.3761
    4.900     0.000   1.214891   0.041222   0.018170   0.059391   0.000000  -0.000000  -0.379034  -0.000000  -0.000000   10.0000     1.3721
    5.000     0.000   1.220981   0.041637   0.018330   0.059967   0.000000  -0.000000  -0.379986   0.000000   0.000000   10.0000     1.3681
    5.100     0.000   1.227131   0.042054   0.018488   0.060542   0.000000  -0.000000  -0.380959  -0.000000  -0.000000   10.0000     1.3641
    5.200     0.000   1.233253   0.042479   0.018646   0.061125   0.000000  -0.000000  -0.381927  -0.000000  -0.000000   10.0000     1.3602
    5.300     0.000   1.239397   0.042900   0.018805   0.061705   0.000000  -0.000000  -0.382899   0.000000   0.000000   10.0000     1.3562
    5.400     0.000   1.245504   0.043328   0.018964   0.062292   0.000000  -0.000000  -0.383861   0.000000   0.000000   10.0000     1.3523
    5.500     0.000   1.251561   0.043748   0.019126   0.062874   0.000000  -0.000000  -0.384801   0.000000   0.000000   10.0000     1.3484
    5.600     0.000   1.257585   0.044167   0.019290   0.063457   0.000000  -0.000000  -0.385728   0.000000   0.000000   10.0000     1.3445
    5.700     0.000   1.263573   0.044586   0.019458   0.064044   0.000000  -0.000000  -0.386644   0.000000   0.000000   10.0000     1.3407
    5.800     0.000   1.269550   0.045006   0.019626   0.064632   0.000000  -0.000000  -0.387557   0.000000   0.000000   10.0000     1.3369
    5.900     0.000   1.275504   0.045427   0.019796   0.065223   0.000000  -0.000000  -0.388464   0.000000   0.000000   10.0000     1.3331
    6.000     0.000   1.281479   0.045852   0.019965   0.065817   0.000000  -0.000000  -0.389380   0.000000   0.000000   10.0000     1.3294
    6.100     0.000   1.287475   0.046281   0.020134   0.066415   0.000000  -0.000000  -0.390307   0.000000   0.000000   10.0000     1.3257
    6.200     0.000   1.293475   0.046709   0.020305   0.067014   0.000000  -0.000000  -0.391238   0.000000   0.000000   10.0000     1.3221
    6.300     0.000   1.299469   0.047143   0.020477   0.067620   0.000000  -0.000000  -0.392173   0.000000   0.000000   10.0000     1.3185
    6.400     0.000   1.305446   0.047585   0.020649   0.068233   0.000000  -0.000000  -0.393106   0.000000   0.000000   10.0000     1.3149
    6.500     0.000   1.311448   0.048021   0.020821   0.068842   0.000000  -0.000000  -0.394044   0.000000   0.000000   10.0000     1.3114
    6.600     0.000   1.317432   0.048466   0.020993   0.069459   0.000000  -0.000000  -0.394981   0.000000   0.000000   10.0000     1.3078
    6.700     0.000   1.323483   0.048915   0.021163   0.070078   0.000000  -0.000000  -0.395945   0.000000   0.000000   10.0000     1.3044
    6.800     0.000   1.329555   0.049366   0.021333   0.070699   0.000000  -0.000000  -0.396921   0.000000   0.000000   10.0000     1.3010
    6.900     0.000   1.335634   0.049819   0.021503   0.071322   0.000000  -0.000000  -0.397899   0.000000   0.000000   10.0000     1.2976
    7.000     0.000   1.341727   0.050274   0.021673   0.071947   0.000000  -0.000000  -0.398884   0.000000  -0.000000   10.0000     1.2943
    7.100     0.000   1.347819   0.050731   0.021843   0.072574   0.000000  -0.000000  -0.399869   0.000000  -0.000000   10.0000     1.2910
    7.200     0.000   1.353956   0.051192   0.022012   0.073204   0.000000  -0.000000  -0.400872   0.000000   0.000000   10.0000     1.2877
    7.300     0.000   1.360147   0.051656   0.022179   0.073836   0.000000  -0.000000  -0.401900  -0.000000  -0.000000   10.0000     1.2845
    7.400     0.000   1.366332   0.052122   0.022347   0.074469   0.000000  -0.000000  -0.402926   0.000000   0.000000   10.0000     1.2813
    7.500     0.000   1.372546   0.052590   0.022515   0.075105   0.000000  -0.000000  -0.403964   0.000000   0.000000   10.0000     1.2781
    7.600     0.000   1.378764   0.053062   0.022682   0.075743   0.000000  -0.000000  -0.405004   0.000000  -0.000000   10.0000     1.2749
    7.700     0.000   1.384945   0.053531   0.022852   0.076383   0.000000  -0.000000  -0.406030   0.000000   0.000000   10.0000     1.2717
    7.800     0.000   1.391092   0.053999   0.023026   0.077025   0.000000  -0.000000  -0.407048   0.000000   0.000000   10.0000     1.2686
    7.900     0.000   1.397254   0.054471   0.023200   0.077671   0.000000  -0.000000  -0.408075   0.000000   0.000000   10.0000     1.2656
    8.000     0.000   1.403408   0.054952   0.023373   0.078325   0.000000  -0.000000  -0.409103   0.000000   0.000000   10.0000     1.2625
    8.100     0.000   1.409572   0.055426   0.023549   0.078975   0.000000  -0.000000  -0.410132   0.000000   0.000000   10.0000     1.2595
    8.200     0.000   1.415700   0.055909   0.023725   0.079633   0.000000  -0.000000  -0.411153   0.000000   0.000000   10.0000     1.2565
    8.300     0.000   1.421802   0.056385   0.023906   0.080291   0.000000  -0.000000  -0.412164   0.000000   0.000000   10.0000     1.2534
    8.400     0.000   1.427870   0.056866   0.024093   0.080958   0.000000  -0.000000  -0.413174   0.000000   0.000000   10.0000     1.2505
    8.500     0.000   1.433940   0.057350   0.024279   0.081629   0.000000  -0.000000  -0.414185   0.000000   0.000000   10.0000     1.2476
    8.600     0.000   1.439979   0.057834   0.024469   0.082303   0.000000  -0.000000  -0.415188   0.000000   0.000000   10.0000     1.2447
    8.700     0.000   1.446011   0.058321   0.024659   0.082980   0.000000  -0.000000  -0.416189   0.000000   0.000000   10.0000     1.2417
    8.800     0.000   1.451956   0.058805   0.024856   0.083662   0.000000  -0.000000  -0.417163   0.000000   0.000000   10.0000     1.2389
    8.900     0.000   1.457832   0.059289   0.025061   0.084350   0.000000  -0.000000  -0.418117   0.000000   0.000000   10.0000     1.2360
    9.000     0.000   1.463689   0.059768   0.025268   0.085037   0.000000  -0.000000  -0.419065   0.000000   0.000000   10.0000     1.2331
    9.100     0.000   1.469495   0.060259   0.025478   0.085737   0.000000  -0.000000  -0.420006   0.000000   0.000000   10.0000     1.2303
    9.200     0.000   1.475297   0.060748   0.025690   0.086438   0.000000  -0.000000  -0.420945   0.000000   0.000000   10.0000     1.2275
    9.300     0.000   1.481054   0.061237   0.025906   0.087142   0.000000  -0.000000  -0.421871  -0.000000  -0.000000   10.0000     1.2247
    9.400     0.000   1.486768   0.061725   0.026125   0.087850   0.000000  -0.000000  -0.422786  -0.000000  -0.000000   10.0000     1.2219
    9.500     0.000   1.492430   0.062212   0.026350   0.088562   0.000000  -0.000000  -0.423687   0.000000   0.000000   10.0000     1.2192
    9.600     0.000   1.498064   0.062699   0.026578   0.089277   0.000000  -0.000000  -0.424582   0.000000   0.000000   10.0000     1.2164
    9.700     0.000   1.503683   0.063187   0.026808   0.089995   0.000000  -0.000000  -0.425472   0.000000   0.000000   10.0000     1.2137
    9.800     0.000   1.509273   0.063679   0.027040   0.090719   0.000000  -0.000000  -0.426357   0.000000   0.000000   10.0000     1.2110
    9.900     0.000   1.514859   0.064162   0.027277   0.091439   0.000000  -0.000000  -0.427240   0.000000  -0.000000   10.0000     1.2083
   10.000     0.000   1.520404   0.064648   0.027517   0.092165   0.000000  -0.000000  -0.428115   0.000000  -0.000000   10.0000     1.2056
   10.100     0.000   1.525899   0.065131   0.027762   0.092893   0.000000  -0.000000  -0.428975  -0.000000  -0.000000   10.0000     1.2029
   10.200     0.000   1.531371   0.065613   0.028011   0.093624   0.000000  -0.000000  -0.429829   0.000000   0.000000   10.0000     1.2002
   10.300     0.000   1.536809   0.066096   0.028262   0.094359   0.000000  -0.000000  -0.430674   0.000000   0.000000   10.0000     1.1976
   10.400     0.000   1.542181   0.066577   0.028520   0.095097   0.000000  -0.000000  -0.431499   0.000000   0.000000   10.0000     1.1949
   10.500     0.000   1.547502   0.067057   0.028783   0.095840   0.000000  -0.000000  -0.432311   0.000000   0.000000   10.0000     1.1923
   10.600     0.000   1.552817   0.067539   0.029048   0.096587   0.000000  -0.000000  -0.433124   0.000000  -0.000000   10.0000     1.1897
   10.700     0.000   1.558051   0.068017   0.029320   0.097337   0.000000  -0.000000  -0.433914   0.000000   0.000000   10.0000     1.1871
   10.800     0.000   1.563234   0.068493   0.029597   0.098090   0.000000  -0.000000  -0.434690  -0.000000  -0.000000   10.0000     1.1845
   10.900     0.000   1.568249   0.068963   0.029888   0.098852   0.000000  -0.000000  -0.435415   0.000000  -0.000000   10.0000     1.1819
   11.000     0.000   1.573136   0.069428   0.030190   0.099619   0.000000  -0.000000  -0.436103   0.000000   0.000000   10.0000     1.1793
   11.100     0.000   1.577975   0.069891   0.030497   0.100388   0.000000  -0.000000  -0.436776   0.000000   0.000000   10.0000     1.1767
   11.200     0.000   1.582732   0.070352   0.030812   0.101164   0.000000  -0.000000  -0.437429  -0.000000  -0.000000   10.0000     1.1741
   11.300     0.000   1.587442   0.070811   0.031132   0.101943   0.000000  -0.000000  -0.438070   0.000000  -0.000000   10.0000     1.1715
   11.400     0.000   1.592130   0.071270   0.031456   0.102726   0.000000  -0.000000  -0.438709  -0.000000  -0.000000   10.0000     1.1690
   11.500     0.000   1.596813   0.071729   0.031781   0.103511   0.000000  -0.000000  -0.439350  -0.000000  -0.000000   10.0000     1.1664
   11.600     0.000   1.601412   0.072185   0.032114   0.104300   0.000000   0.000000  -0.439967  -0.000000  -0.000000   10.0000     1.1639
   11.700     0.000   1.605973   0.072639   0.032452   0.105091   0.000000  -0.000000  -0.440573  -0.000000  -0.000000   10.0000     1.1614
   11.800     0.000   1.610494   0.073091   0.032794   0.105885   0.000000  -0.000000  -0.441171   0.000000   0.000000   10.0000     1.1589
   11.900     0.000   1.614891   0.073539   0.033149   0.106688   0.000000  -0.000000  -0.441738   0.000000  -0.000000   10.0000     1.1564
   12.000     0.000   1.619198   0.073987   0.033512   0.107499   0.000000  -0.000000  -0.442282  -0.000000  -0.000000   10.0000     1.1539
   12.100     0.000   1.623472   0.074429   0.033881   0.108310   0.000000  -0.000000  -0.442817   0.000000   0.000000   10.0000     1.1514
   12.200     0.000   1.627711   0.074869   0.034253   0.109122   0.000000   0.000000  -0.443343   0.000000   0.000000   10.0000     1.1489
   12.300     0.000   1.631836   0.075302   0.034637   0.109939   0.000000  -0.000000  -0.443837   0.000000   0.000000   10.0000     1.1464
   12.400     0.000   1.635842   0.075728   0.035034   0.110762   0.000000  -0.000000  -0.444302  -0.000000  -0.000000   10.0000     1.1439
   12.500     0.000   1.639784   0.076151   0.035439   0.111590   0.000000  -0.000000  -0.444752   0.000000   0.000000   10.0000     1.1415
   12.600     0.000   1.643664   0.076571   0.035850   0.112421   0.000000  -0.000000  -0.445187   0.000000   0.000000   10.0000     1.1390
   12.700     0.000   1.647478   0.076986   0.036269   0.113256   0.000000   0.000000  -0.445605   0.000000   0.000000   10.0000     1.1366
   12.800     0.000   1.651254   0.077397   0.036695   0.114092   0.000000   0.000000  -0.446016   0.000000  -0.000000   10.0000     1.1341
   12.900     0.000   1.654961   0.077814   0.037129   0.114943   0.000000  -0.000000  -0.446418   0.000000   0.000000   10.0000     1.1317
   13.000     0.000   1.658632   0.078228   0.037570   0.115798   0.000000  -0.000000  -0.446814  -0.000000  -0.000000   10.0000     1.1293
   13.100     0.000   1.662253   0.078635   0.038019   0.116653   0.000000  -0.000000  -0.447198   0.000000  -0.000000   10.0000     1.1269
   13.200     0.000   1.665796   0.079042   0.038475   0.117517   0.000000  -0.000000  -0.447564   0.000000   0.000000   10.0000     1.1245
   13.300     0.000   1.669300   0.079445   0.038938   0.118382   0.000000  -0.000000  -0.447923   0.000000  -0.000000   10.0000     1.1222
   13.400     0.000   1.672547   0.079834   0.039429   0.119263   0.000000  -0.000000  -0.448217  -0.000000   0.000000   10.0000     1.1198
   13.500     0.000   1.675663   0.080217   0.039936   0.120153   0.000000  -0.000000  -0.448477   0.000000   0.000000   10.0000     1.1174
   13.600     0.000   1.678685   0.080595   0.040454   0.121049   0.000000  -0.000000  -0.448714   0.000000   0.000000   10.0000     1.1151
   13.700     0.000   1.681593   0.080961   0.040985   0.121946   0.000000  -0.000000  -0.448922   0.000000   0.000000   10.0000     1.1127
   13.800     0.000   1.684364   0.081319   0.041532   0.122851   0.000000  -0.000000  -0.449095   0.000000  -0.000000   10.0000     1.1104
   13.900     0.000   1.687101   0.081673   0.042088   0.123761   0.000000  -0.000000  -0.449271   0.000000   0.000000   10.0000     1.1080
   14.000     0.000   1.689817   0.082023   0.042650   0.124673   0.000000  -0.000000  -0.449449   0.000000  -0.000000   10.0000     1.1057
   14.100     0.000   1.692536   0.082374   0.043213   0.125587   0.000000  -0.000000  -0.449632  -0.000000  -0.000000   10.0000     1.1035
   14.200     0.000   1.695130   0.082717   0.043792   0.126509   0.000000  -0.000000  -0.449787   0.000000  -0.000000   10.0000     1.1012