xflr5 v6.61

Plane name :        10 deg flap 30m
Polar name :        T1-10.0 m/s-LLT
Freestream speed :  10.000 m/s


   alpha      Beta       CL          CDi        CDv        CD         CY         Cl         Cm         Cn        Cni       QInf        XCP
  -16.000     0.000  -0.784272   0.018006   0.009597   0.027603   0.000000   0.000000   0.094142   0.000000   0.000000   10.0000     0.4781
  -15.900     0.000  -0.775121   0.017679   0.009498   0.027178   0.000000   0.000000   0.091959   0.000000   0.000000   10.0000     0.4714
  -15.800     0.000  -0.766487   0.017301   0.009407   0.026708   0.000000   0.000000   0.089895   0.000000  -0.000000   10.0000     0.4648
  -15.700     0.000  -0.757868   0.016916   0.009320   0.026237   0.000000   0.000000   0.087828   0.000000   0.000000   10.0000     0.4580
  -15.600     0.000  -0.749242   0.016532   0.009236   0.025768   0.000000   0.000000   0.085755   0.000000   0.000000   10.0000     0.4509
  -15.500     0.000  -0.740601   0.016151   0.009152   0.025304   0.000000   0.000000   0.083676   0.000000   0.000000   10.0000     0.4437
  -15.400     0.000  -0.731962   0.015774   0.009069   0.024843   0.000000   0.000000   0.081598   0.000000   0.000000   10.0000     0.4365
  -15.300     0.000  -0.723286   0.015400   0.008988   0.024389   0.000000   0.000000   0.079506   0.000000   0.000000   10.0000     0.4289
  -15.200     0.000  -0.714570   0.015030   0.008910   0.023940   0.000000   0.000000   0.077400   0.000000   0.000000   10.0000     0.4210
  -15.100     0.000  -0.705813   0.014662   0.008835   0.023498   0.000000   0.000000   0.075279   0.000000   0.000000   10.0000     0.4127
  -15.000     0.000  -0.697050   0.014299   0.008761   0.023060   0.000000   0.000000   0.073156   0.000000  -0.000000   10.0000     0.4042
  -14.900     0.000  -0.688273   0.013940   0.008687   0.022627   0.000000   0.000000   0.071028   0.000000  -0.000000   10.0000     0.3956
  -14.800     0.000  -0.679484   0.013584   0.008615   0.022200   0.000000   0.000000   0.068895   0.000000  -0.000000   10.0000     0.3867
  -14.700     0.000  -0.670670   0.013233   0.008545   0.021778   0.000000   0.000000   0.066753   0.000000  -0.000000   10.0000     0.3775
  -14.600     0.000  -0.661807   0.012884   0.008478   0.021362   0.000000   0.000000   0.064594   0.000000   0.000000   10.0000     0.3677
  -14.500     0.000  -0.652933   0.012540   0.008411   0.020951   0.000000   0.000000   0.062431   0.000000   0.000000   10.0000     0.3577
  -14.400     0.000  -0.644053   0.012200   0.008345   0.020545   0.000000   0.000000   0.060265   0.000000   0.000000   10.0000     0.3475
  -14.300     0.000  -0.635168   0.011865   0.008279   0.020144   0.000000   0.000000   0.058099   0.000000  -0.000000   10.0000     0.3373
  -14.200     0.000  -0.626271   0.011534   0.008215   0.019749   0.000000   0.000000   0.055928   0.000000   0.000000   10.0000     0.3268
  -14.100     0.000  -0.617340   0.011207   0.008153   0.019360   0.000000   0.000000   0.053746   0.000000  -0.000000   10.0000     0.3152
  -14.000     0.000  -0.608382   0.010883   0.008094   0.018977   0.000000   0.000000   0.051553   0.000000  -0.000000   10.0000     0.3030
  -13.900     0.000  -0.599416   0.010564   0.008036   0.018600   0.000000   0.000000   0.049359   0.000000   0.000000   10.0000     0.2907
  -13.800     0.000  -0.590437   0.010249   0.007978   0.018227   0.000000   0.000000   0.047159   0.000000   0.000000   10.0000     0.2780
  -13.700     0.000  -0.581451   0.009938   0.007919   0.017858   0.000000   0.000000   0.044956   0.000000   0.000000   10.0000     0.2652
  -13.600     0.000  -0.572445   0.009632   0.007861   0.017493   0.000000   0.000000   0.042747   0.000000   0.000000   10.0000     0.2521
  -13.500     0.000  -0.563388   0.009330   0.007804   0.017134   0.000000   0.000000   0.040519   0.000000  -0.000000   10.0000     0.2378
  -13.400     0.000  -0.554318   0.009032   0.007747   0.016779   0.000000   0.000000   0.038286   0.000000   0.000000   10.0000     0.2231
  -13.300     0.000  -0.545241   0.008738   0.007691   0.016429   0.000000   0.000000   0.036050   0.000000   0.000000   10.0000     0.2080
  -13.200     0.000  -0.536147   0.008449   0.007638   0.016086   0.000000   0.000000   0.033808   0.000000   0.000000   10.0000     0.1924
  -13.100     0.000  -0.527037   0.008164   0.007586   0.015750   0.000000   0.000000   0.031560   0.000000   0.000000   10.0000     0.1762
  -13.000     0.000  -0.517889   0.007883   0.007539   0.015422   0.000000   0.000000   0.029298   0.000000   0.000000   10.0000     0.1591
  -12.900     0.000  -0.508702   0.007606   0.007496   0.015102   0.000000   0.000000   0.027022   0.000000   0.000000   10.0000     0.1410
  -12.800     0.000  -0.499515   0.007334   0.007453   0.014787   0.000000   0.000000   0.024746   0.000000   0.000000   10.0000     0.1227
  -12.700     0.000  -0.490323   0.007067   0.007411   0.014478   0.000000   0.000000   0.022468   0.000000   0.000000   10.0000     0.1039
  -12.600     0.000  -0.481121   0.006805   0.007369   0.014174   0.000000   0.000000   0.020186   0.000000   0.000000   10.0000     0.0841
  -12.500     0.000  -0.471910   0.006547   0.007328   0.013875   0.000000   0.000000   0.017901   0.000000  -0.000000   10.0000     0.0634
  -12.400     0.000  -0.462681   0.006294   0.007289   0.013583   0.000000   0.000000   0.015610   0.000000   0.000000   10.0000     0.0410
  -12.300     0.000  -0.453444   0.006046   0.007250   0.013296   0.000000   0.000000   0.013316   0.000000  -0.000000   10.0000     0.0179
  -12.200     0.000  -0.444204   0.005802   0.007212   0.013014   0.000000   0.000000   0.011021   0.000000   0.000000   10.0000    -0.0059
  -12.100     0.000  -0.434959   0.005564   0.007174   0.012738   0.000000   0.000000   0.008725   0.000000   0.000000   10.0000    -0.0303
  -12.000     0.000  -0.425702   0.005330   0.007137   0.012467   0.000000   0.000000   0.006424   0.000000   0.000000   10.0000    -0.0559
  -11.900     0.000  -0.416423   0.005100   0.007101   0.012202   0.000000   0.000000   0.004115   0.000000  -0.000000   10.0000    -0.0839
  -11.800     0.000  -0.407127   0.004876   0.007067   0.011943   0.000000   0.000000   0.001800   0.000000   0.000000   10.0000    -0.1137
  -11.700     0.000  -0.397827   0.004656   0.007032   0.011688   0.000000   0.000000  -0.000516   0.000000   0.000000   10.0000    -0.1440
  -11.600     0.000  -0.388525   0.004442   0.006998   0.011439   0.000000   0.000000  -0.002833   0.000000   0.000000   10.0000    -0.1747
  -11.500     0.000  -0.379216   0.004232   0.006963   0.011195   0.000000   0.000000  -0.005152   0.000000   0.000000   10.0000    -0.2064
  -11.400     0.000  -0.369898   0.004027   0.006929   0.010956   0.000000   0.000000  -0.007475   0.000000   0.000000   10.0000    -0.2399
  -11.300     0.000  -0.360553   0.003827   0.006895   0.010722   0.000000   0.000000  -0.009807   0.000000   0.000000   10.0000    -0.2782
  -11.200     0.000  -0.351204   0.003632   0.006861   0.010493   0.000000  -0.000000  -0.012140   0.000000  -0.000000   10.0000    -0.3182
  -11.100     0.000  -0.341850   0.003442   0.006828   0.010269   0.000000   0.000000  -0.014475   0.000000  -0.000000   10.0000    -0.3597
  -11.000     0.000  -0.332493   0.003257   0.006794   0.010051   0.000000   0.000000  -0.016811   0.000000   0.000000   10.0000    -0.4019
  -10.900     0.000  -0.323127   0.003076   0.006761   0.009838   0.000000   0.000000  -0.019150   0.000000   0.000000   10.0000    -0.4463
  -10.800     0.000  -0.313741   0.002901   0.006729   0.009630   0.000000   0.000000  -0.021496   0.000000  -0.000000   10.0000    -0.4961
  -10.700     0.000  -0.304334   0.002731   0.006698   0.009428   0.000000   0.000000  -0.023850   0.000000  -0.000000   10.0000    -0.5523
  -10.600     0.000  -0.294927   0.002565   0.006666   0.009232   0.000000   0.000000  -0.026203   0.000000  -0.000000   10.0000    -0.6088
  -10.500     0.000  -0.285519   0.002405   0.006635   0.009041   0.000000   0.000000  -0.028557   0.000000   0.000000   10.0000    -0.6667
  -10.400     0.000  -0.276107   0.002250   0.006605   0.008855   0.000000  -0.000000  -0.030912   0.000000  -0.000000   10.0000    -0.7287
  -10.300     0.000  -0.266691   0.002100   0.006575   0.008675   0.000000   0.000000  -0.033268   0.000000  -0.000000   10.0000    -0.7972
  -10.200     0.000  -0.257260   0.001955   0.006547   0.008502   0.000000   0.000000  -0.035628   0.000000   0.000000   10.0000    -0.8775
  -10.100     0.000  -0.247827   0.001815   0.006519   0.008334   0.000000   0.000000  -0.037988   0.000000   0.000000   10.0000    -0.9611
  -10.000     0.000  -0.238393   0.001681   0.006491   0.008172   0.000000   0.000000  -0.040349   0.000000   0.000000   10.0000    -1.0473
   -9.900     0.000  -0.228957   0.001551   0.006464   0.008015   0.000000  -0.000000  -0.042710  -0.000000  -0.000000   10.0000    -1.1359
   -9.800     0.000  -0.219519   0.001427   0.006437   0.007864   0.000000   0.000000  -0.045072   0.000000   0.000000   10.0000    -1.2300
   -9.700     0.000  -0.210072   0.001307   0.006412   0.007719   0.000000   0.000000  -0.047436   0.000000   0.000000   10.0000    -1.3431
   -9.600     0.000  -0.200615   0.001193   0.006388   0.007581   0.000000   0.000000  -0.049802   0.000000   0.000000   10.0000    -1.4771
   -9.500     0.000  -0.191159   0.001084   0.006364   0.007448   0.000000   0.000000  -0.052167   0.000000  -0.000000   10.0000    -1.6112
   -9.400     0.000  -0.181704   0.000981   0.006340   0.007321   0.000000   0.000000  -0.054532   0.000000  -0.000000   10.0000    -1.7554
   -9.300     0.000  -0.172248   0.000882   0.006317   0.007199   0.000000   0.000000  -0.056897   0.000000   0.000000   10.0000    -1.9126
   -9.200     0.000  -0.162794   0.000789   0.006294   0.007083   0.000000   0.000000  -0.059261   0.000000   0.000000   10.0000    -2.0992
   -9.100     0.000  -0.153347   0.000701   0.006272   0.006973   0.000000   0.000000  -0.061620   0.000000   0.000000   10.0000    -2.4919
   -9.000     0.000  -0.143900   0.000618   0.006251   0.006869   0.000000  -0.000000  -0.063978   0.000000  -0.000000   10.0000    -2.9014
   -8.500     0.000  -0.096423   0.000283   0.006150   0.006433   0.000000  -0.000000  -0.075848   0.000000  -0.000000   10.0000    -5.7700
   -8.000     0.000  -0.048861   0.000076   0.006062   0.006138   0.000000   0.000000  -0.087756   0.000000  -0.000000   10.0000   -57.6472
   -7.500     0.000  -0.001607   0.000000   0.005980   0.005980   0.000000   0.000000  -0.099520   0.000000   0.000000   10.0000  -282.6069
   -7.000     0.000   0.041779   0.000046   0.006173   0.006219   0.000000  -0.000000  -0.109457   0.000000  -0.000000   10.0000   -26.0438
   -6.500     0.000   0.081763   0.000189   0.006607   0.006796   0.000000  -0.000000  -0.117805   0.000000   0.000000   10.0000     6.9759
   -6.000     0.000   0.124084   0.000438   0.006869   0.007307   0.000000  -0.000000  -0.127183   0.000000   0.000000   10.0000     5.3823
   -5.500     0.000   0.167795   0.000806   0.007014   0.007820   0.000000  -0.000000  -0.137215   0.000000   0.000000   10.0000     4.2700
   -5.000     0.000   0.212055   0.001293   0.007126   0.008419   0.000000  -0.000000  -0.147482   0.000000   0.000000   10.0000     3.5909
   -4.500     0.000   0.256605   0.001898   0.007223   0.009121   0.000000  -0.000000  -0.157869   0.000000   0.000000   10.0000     3.1471
   -4.000     0.000   0.301297   0.002622   0.007299   0.009921   0.000000  -0.000000  -0.168316   0.000000   0.000000   10.0000     2.8435
   -3.500     0.000   0.346037   0.003465   0.007364   0.010829   0.000000  -0.000000  -0.178776   0.000000  -0.000000   10.0000     2.6197
   -3.000     0.000   0.390666   0.004423   0.007436   0.011859   0.000000  -0.000000  -0.189172   0.000000  -0.000000   10.0000     2.4446
   -2.500     0.000   0.435087   0.005494   0.007512   0.013006   0.000000  -0.000000  -0.199461   0.000000  -0.000000   10.0000     2.3091
   -2.000     0.000   0.479470   0.006679   0.007579   0.014258   0.000000  -0.000000  -0.209722   0.000000   0.000000   10.0000     2.1978
   -1.500     0.000   0.523575   0.007974   0.007656   0.015630   0.000000  -0.000000  -0.219845   0.000000   0.000000   10.0000     2.1050
   -1.000     0.000   0.567466   0.009376   0.007732   0.017108   0.000000  -0.000000  -0.229859   0.000000   0.000000   10.0000     2.0265
   -0.500     0.000   0.611028   0.010883   0.007812   0.018695   0.000000  -0.000000  -0.239711   0.000000   0.000000   10.0000     1.9593
    0.000     0.000   0.654128   0.012488   0.007901   0.020388   0.000000  -0.000000  -0.249341   0.000000   0.000000   10.0000     1.9002
    0.500     0.000   0.696857   0.014189   0.007992   0.022181   0.000000  -0.000000  -0.258789   0.000000  -0.000000   10.0000     1.8479
    1.000     0.000   0.739191   0.015983   0.008085   0.024069   0.000000  -0.000000  -0.268046   0.000000  -0.000000   10.0000     1.8013
    1.500     0.000   0.780860   0.017861   0.008189   0.026050   0.000000  -0.000000  -0.276987  -0.000000  -0.000000   10.0000     1.7589
    2.000     0.000   0.821649   0.019809   0.008299   0.028107   0.000000  -0.000000  -0.285510   0.000000   0.000000   10.0000     1.7201
    2.500     0.000   0.861054   0.021801   0.008410   0.030212   0.000000  -0.000000  -0.293367   0.000000   0.000000   10.0000     1.6837
    3.000     0.000   0.898574   0.023812   0.008524   0.032336   0.000000  -0.000000  -0.300319   0.000000   0.000000   10.0000     1.6488
    3.500     0.000   0.935018   0.025856   0.008661   0.034518   0.000000  -0.000000  -0.306764   0.000000   0.000000   10.0000     1.6155
    4.000     0.000   0.971153   0.027957   0.008826   0.036783   0.000000  -0.000000  -0.313080   0.000000   0.000000   10.0000     1.5846
    4.500     0.000   1.006910   0.030109   0.009015   0.039125   0.000000  -0.000000  -0.319245  -0.000000  -0.000000   10.0000     1.5555
    5.000     0.000   1.041909   0.032304   0.009242   0.041547   0.000000  -0.000000  -0.325107   0.000000   0.000000   10.0000     1.5279
    5.500     0.000   1.076809   0.034563   0.009488   0.044051   0.000000   0.000000  -0.330963  -0.000000  -0.000000   10.0000     1.5020
    6.000     0.000   1.110720   0.036842   0.009782   0.046624   0.000000  -0.000000  -0.336425  -0.000000  -0.000000   10.0000     1.4771
    6.500     0.000   1.144421   0.039175   0.010101   0.049276   0.000000  -0.000000  -0.341846   0.000000   0.000000   10.0000     1.4536
    7.000     0.000   1.177283   0.041529   0.010475   0.052003   0.000000  -0.000000  -0.346964   0.000000   0.000000   10.0000     1.4309
    7.500     0.000   1.209108   0.043903   0.010920   0.054823   0.000000  -0.000000  -0.351729   0.000000   0.000000   10.0000     1.4091
    8.000     0.000   1.240217   0.046291   0.011427   0.057719   0.000000  -0.000000  -0.356276   0.000000  -0.000000   10.0000     1.3882
    8.500     0.000   1.271263   0.048718   0.011971   0.060689   0.000000  -0.000000  -0.360879  -0.000000  -0.000000   10.0000     1.3683
    9.000     0.000   1.302093   0.051197   0.012552   0.063749   0.000000  -0.000000  -0.365495   0.000000   0.000000   10.0000     1.3494
    9.500     0.000   1.332315   0.053695   0.013198   0.066893   0.000000  -0.000000  -0.369962   0.000000   0.000000   10.0000     1.3313
   10.000     0.000   1.360872   0.056435   0.013903   0.070338   0.000000  -0.000000  -0.374056   0.000000   0.000000   10.0000     1.3142
   10.500     0.000   1.389781   0.058673   0.014741   0.073415   0.000000  -0.000000  -0.378033   0.000000   0.000000   10.0000     1.2966
   11.000     0.000   1.417036   0.061128   0.015648   0.076776   0.000000  -0.000000  -0.381672   0.000000   0.000000   10.0000     1.2800
   11.500     0.000   1.443215   0.063567   0.016639   0.080206   0.000000   0.000000  -0.385032  -0.000000  -0.000000   10.0000     1.2638
   12.000     0.000   1.468188   0.065967   0.017732   0.083699   0.000000  -0.000000  -0.388078   0.000000  -0.000000   10.0000     1.2480
   12.500     0.000   1.491729   0.068314   0.018944   0.087258   0.000000  -0.000000  -0.390749   0.000000   0.000000   10.0000     1.2325
   13.000     0.000   1.513809   0.070598   0.020287   0.090885   0.000000  -0.000000  -0.393062   0.000000   0.000000   10.0000     1.2172
   13.500     0.000   1.534160   0.072800   0.021775   0.094575   0.000000  -0.000000  -0.394942  -0.000000  -0.000000   10.0000     1.2023
   14.000     0.000   1.552571   0.074902   0.023442   0.098344   0.000000  -0.000000  -0.396350   0.000000   0.000000   10.0000     1.1875
   14.500     0.000   1.568949   0.076896   0.025322   0.102218   0.000000  -0.000000  -0.397303   0.000000   0.000000   10.0000     1.1731
   15.000     0.000   1.583174   0.079011   0.027379   0.106390   0.000000  -0.000000  -0.397868   0.000000  -0.000000   10.0000     1.1593
   15.500     0.000   1.596110   0.080527   0.029769   0.110296   0.000000  -0.000000  -0.398129   0.000000  -0.000000   10.0000     1.1453
   16.000     0.000   1.605922   0.082281   0.032430   0.114711   0.000000  -0.000000  -0.397863   0.000000   0.000000   10.0000     1.1322
   16.100     0.000   1.607830   0.082443   0.033039   0.115483   0.000000  -0.000000  -0.397794   0.000000   0.000000   10.0000     1.1295
   16.200     0.000   1.609697   0.082701   0.033628   0.116329   0.000000  -0.000000  -0.397749   0.000000   0.000000   10.0000     1.1270


